Clear

New Circuit.ALPINE_Reduced bus1=SourceBus basekv=12 R1=0.063 X1=0.5495 R0=0.0152 X0=1.3295 Sequence=pos
New Line.0355_03551 Phases=3 bus1=0355.1.2.3 bus2=03551.1.2.3 Units=km Length=0.033924 Rmatrix=[0.12456     0.03762     0.03762| 0.03762     0.12456     0.03762| 0.03762     0.03762     0.12456|] Xmatrix=[ 0.6121     0.23447     0.23447| 0.23447      0.6121     0.23447| 0.23447     0.23447      0.6121|] Cmatrix=[0  0  0| 0  0  0| 0  0  0|]
New Line.03551_03552 Phases=3 bus1=03551.1.2.3 bus2=03552.1.2.3 Units=km Length=0.020955 Rmatrix=[0.12456     0.03762     0.03762| 0.03762     0.12456     0.03762| 0.03762     0.03762     0.12456|] Xmatrix=[ 0.6121     0.23447     0.23447| 0.23447      0.6121     0.23447| 0.23447     0.23447      0.6121|] Cmatrix=[0  0  0| 0  0  0| 0  0  0|]
New Line.03552_03552a Phases=3 bus1=03552.1.2.3 bus2=03552a.1.2.3 Units=km Length=0.003048 Rmatrix=[0.12456     0.03762     0.03762| 0.03762     0.12456     0.03762| 0.03762     0.03762     0.12456|] Xmatrix=[ 0.6121     0.23447     0.23447| 0.23447      0.6121     0.23447| 0.23447     0.23447      0.6121|] Cmatrix=[0  0  0| 0  0  0| 0  0  0|]
New Line.035510_035511 Phases=3 bus1=035510.1.2.3 bus2=035511.1.2.3 Units=km Length=0.049469 Rmatrix=[ 0.13353    0.033136    0.033136| 0.033136     0.13353    0.033136| 0.033136    0.033136     0.13353|] Xmatrix=[0.61516     0.23294     0.23294| 0.23294     0.61516     0.23294| 0.23294     0.23294     0.61516|] Cmatrix=[0  0  0| 0  0  0| 0  0  0|]
New Line.035510_035510a Phases=1 bus1=035510.1 bus2=035510a.1 Units=km Length=0.003048 Rmatrix=0.086942 Xmatrix=0.37762 Cmatrix=0
New Line.035511_035512 Phases=3 bus1=035511.1.2.3 bus2=035512.1.2.3 Units=km Length=0.042245 Rmatrix=[ 0.13353    0.033136    0.033136| 0.033136     0.13353    0.033136| 0.033136    0.033136     0.13353|] Xmatrix=[0.61516     0.23294     0.23294| 0.23294     0.61516     0.23294| 0.23294     0.23294     0.61516|] Cmatrix=[0  0  0| 0  0  0| 0  0  0|]
New Line.035510a_03551001 Phases=1 bus1=035510a.1 bus2=03551001.1 Units=km Length=0.020117 Rmatrix=0.5935 Xmatrix=0.47277 Cmatrix=0
New Line.035512_03551201 Phases=3 bus1=035512.1.2.3 bus2=03551201.1.2.3 Units=km Length=0.025237 Rmatrix=[ 1.1475     0.13703     0.13703| 0.13703      1.1475     0.13703| 0.13703     0.13703      1.1475|] Xmatrix=[0.87981     0.35619     0.35619| 0.35619     0.87981     0.35619| 0.35619     0.35619     0.87981|] Cmatrix=[0  0  0| 0  0  0| 0  0  0|]
New Line.035512_035513 Phases=3 bus1=035512.1.2.3 bus2=035513.1.2.3 Units=km Length=0.12293 Rmatrix=[ 0.13353    0.033136    0.033136| 0.033136     0.13353    0.033136| 0.033136    0.033136     0.13353|] Xmatrix=[0.61516     0.23294     0.23294| 0.23294     0.61516     0.23294| 0.23294     0.23294     0.61516|] Cmatrix=[0  0  0| 0  0  0| 0  0  0|]
New Line.03551201_03551202 Phases=3 bus1=03551201.1.2.3 bus2=03551202.1.2.3 Units=km Length=0.062728 Rmatrix=[ 1.1475     0.13703     0.13703| 0.13703      1.1475     0.13703| 0.13703     0.13703      1.1475|] Xmatrix=[0.87981     0.35619     0.35619| 0.35619     0.87981     0.35619| 0.35619     0.35619     0.87981|] Cmatrix=[0  0  0| 0  0  0| 0  0  0|]
New Line.035513_03551306 Phases=3 bus1=035513.1.2.3 bus2=03551306.1.2.3 Units=km Length=0.06855 Rmatrix=[1.0822       0.139       0.139|  0.139      1.0822       0.139|  0.139       0.139      1.0822|] Xmatrix=[0.83869     0.34853     0.34853| 0.34853     0.83869     0.34853| 0.34853     0.34853     0.83869|] Cmatrix=[0  0  0| 0  0  0| 0  0  0|]
New Line.035513_035514 Phases=3 bus1=035513.1.2.3 bus2=035514.1.2.3 Units=km Length=0.12207 Rmatrix=[  0.2161    0.056321    0.056321| 0.056321      0.2161    0.056321| 0.056321    0.056321      0.2161|] Xmatrix=[ 0.6425     0.24322     0.24322| 0.24322      0.6425     0.24322| 0.24322     0.24322      0.6425|] Cmatrix=[0  0  0| 0  0  0| 0  0  0|]
New Line.035513_035513a Phases=2 bus1=035513.1.3 bus2=035513a.1.3 Units=km Length=0.003048 Rmatrix=[0.12456     0.03762| 0.03762     0.12456|] Xmatrix=[ 0.6121     0.23447| 0.23447      0.6121|] Cmatrix=[0  0| 0  0|]
New Line.035513_03551394 Phases=2 bus1=035513.2.3 bus2=03551394.2.3 Units=km Length=0.090983 Rmatrix=[ 1.6358     0.13845| 0.13845      1.6358|] Xmatrix=[0.90256     0.39469| 0.39469     0.90256|] Cmatrix=[0  0| 0  0|]
New Line.03551306_03551392 Phases=2 bus1=03551306.1.3 bus2=03551392.1.3 Units=km Length=0.047214 Rmatrix=[ 1.6358     0.13845| 0.13845      1.6358|] Xmatrix=[0.90256     0.39469| 0.39469     0.90256|] Cmatrix=[0  0| 0  0|]
New Line.03551306_03551306a Phases=3 bus1=03551306.1.2.3 bus2=03551306a.1.2.3 Units=km Length=0.003048 Rmatrix=[0.12456     0.03762     0.03762| 0.03762     0.12456     0.03762| 0.03762     0.03762     0.12456|] Xmatrix=[ 0.6121     0.23447     0.23447| 0.23447      0.6121     0.23447| 0.23447     0.23447      0.6121|] Cmatrix=[0  0  0| 0  0  0| 0  0  0|]
New Line.03551394_03551394a Phases=2 bus1=03551394.2.3 bus2=03551394a.2.3 Units=km Length=0.003048 Rmatrix=[0.12456     0.03762| 0.03762     0.12456|] Xmatrix=[ 0.6121     0.23447| 0.23447      0.6121|] Cmatrix=[0  0| 0  0|]
New Line.035514_035515 Phases=3 bus1=035514.1.2.3 bus2=035515.1.2.3 Units=km Length=0.11902 Rmatrix=[  0.2161    0.056321    0.056321| 0.056321      0.2161    0.056321| 0.056321    0.056321      0.2161|] Xmatrix=[ 0.6425     0.24322     0.24322| 0.24322      0.6425     0.24322| 0.24322     0.24322      0.6425|] Cmatrix=[0  0  0| 0  0  0| 0  0  0|]
New Line.03551301_03551305 Phases=2 bus1=03551301.1.3 bus2=03551305.1.3 Units=km Length=0.10449 Rmatrix=[ 1.6358     0.13845| 0.13845      1.6358|] Xmatrix=[0.90256     0.39469| 0.39469     0.90256|] Cmatrix=[0  0| 0  0|]
New Line.03551301_03551301a Phases=2 bus1=03551301.1.3 bus2=03551301a.1.3 Units=km Length=0.003048 Rmatrix=[0.12456     0.03762| 0.03762     0.12456|] Xmatrix=[ 0.6121     0.23447| 0.23447      0.6121|] Cmatrix=[0  0| 0  0|]
New Line.03551301a_03551302 Phases=2 bus1=03551301a.1.3 bus2=03551302.1.3 Units=km Length=0.1018 Rmatrix=[0.71544     0.12194| 0.12194     0.71544|] Xmatrix=[  0.778     0.30523| 0.30523       0.778|] Cmatrix=[0  0| 0  0|]
New Line.03551302_03551303 Phases=2 bus1=03551302.1.3 bus2=03551303.1.3 Units=km Length=0.045415 Rmatrix=[0.71544     0.12194| 0.12194     0.71544|] Xmatrix=[  0.778     0.30523| 0.30523       0.778|] Cmatrix=[0  0| 0  0|]
New Line.03551302_03551304 Phases=2 bus1=03551302.1.3 bus2=03551304.1.3 Units=km Length=0.059741 Rmatrix=[0.71544     0.12194| 0.12194     0.71544|] Xmatrix=[  0.778     0.30523| 0.30523       0.778|] Cmatrix=[0  0| 0  0|]
New Line.03551392_03551393 Phases=2 bus1=03551392.1.3 bus2=03551393.1.3 Units=km Length=0.044714 Rmatrix=[ 1.6358     0.13845| 0.13845      1.6358|] Xmatrix=[0.90256     0.39469| 0.39469     0.90256|] Cmatrix=[0  0| 0  0|]
New Line.03551306a_03551307 Phases=3 bus1=03551306a.1.2.3 bus2=03551307.1.2.3 Units=km Length=0.11403 Rmatrix=[1.0822       0.139       0.139|  0.139      1.0822       0.139|  0.139       0.139      1.0822|] Xmatrix=[0.83869     0.34853     0.34853| 0.34853     0.83869     0.34853| 0.34853     0.34853     0.83869|] Cmatrix=[0  0  0| 0  0  0| 0  0  0|]
New Line.03551307_03551308 Phases=3 bus1=03551307.1.2.3 bus2=03551308.1.2.3 Units=km Length=0.081686 Rmatrix=[1.0822       0.139       0.139|  0.139      1.0822       0.139|  0.139       0.139      1.0822|] Xmatrix=[0.83869     0.34853     0.34853| 0.34853     0.83869     0.34853| 0.34853     0.34853     0.83869|] Cmatrix=[0  0  0| 0  0  0| 0  0  0|]
New Line.03551308_03551314 Phases=3 bus1=03551308.1.2.3 bus2=03551314.1.2.3 Units=km Length=0.13061 Rmatrix=[1.0822       0.139       0.139|  0.139      1.0822       0.139|  0.139       0.139      1.0822|] Xmatrix=[0.83869     0.34853     0.34853| 0.34853     0.83869     0.34853| 0.34853     0.34853     0.83869|] Cmatrix=[0  0  0| 0  0  0| 0  0  0|]
New Line.03551308_03551308a Phases=2 bus1=03551308.1.3 bus2=03551308a.1.3 Units=km Length=0.003048 Rmatrix=[0.12456     0.03762| 0.03762     0.12456|] Xmatrix=[ 0.6121     0.23447| 0.23447      0.6121|] Cmatrix=[0  0| 0  0|]
New Line.03551314_03551315 Phases=3 bus1=03551314.1.2.3 bus2=03551315.1.2.3 Units=km Length=0.096561 Rmatrix=[1.0822       0.139       0.139|  0.139      1.0822       0.139|  0.139       0.139      1.0822|] Xmatrix=[0.83869     0.34853     0.34853| 0.34853     0.83869     0.34853| 0.34853     0.34853     0.83869|] Cmatrix=[0  0  0| 0  0  0| 0  0  0|]
New Line.03551314_03551367 Phases=2 bus1=03551314.2.3 bus2=03551367.2.3 Units=km Length=0.05968 Rmatrix=[ 1.6358     0.13845| 0.13845      1.6358|] Xmatrix=[0.90256     0.39469| 0.39469     0.90256|] Cmatrix=[0  0| 0  0|]
New Line.03551308a_03551309 Phases=2 bus1=03551308a.1.3 bus2=03551309.1.3 Units=km Length=0.050993 Rmatrix=[1.0822       0.139|  0.139      1.0822|] Xmatrix=[0.83869     0.34853| 0.34853     0.83869|] Cmatrix=[0  0| 0  0|]
New Line.03551308a_03551313 Phases=2 bus1=03551308a.1.3 bus2=03551313.1.3 Units=km Length=0.054498 Rmatrix=[ 1.1475     0.13703| 0.13703      1.1475|] Xmatrix=[0.87981     0.35619| 0.35619     0.87981|] Cmatrix=[0  0| 0  0|]
New Line.03551309_03551310 Phases=2 bus1=03551309.1.3 bus2=03551310.1.3 Units=km Length=0.049621 Rmatrix=[ 1.1475     0.13703| 0.13703      1.1475|] Xmatrix=[0.87981     0.35619| 0.35619     0.87981|] Cmatrix=[0  0| 0  0|]
New Line.03551310_03551311 Phases=2 bus1=03551310.1.3 bus2=03551311.1.3 Units=km Length=0.051481 Rmatrix=[ 1.1475     0.13703| 0.13703      1.1475|] Xmatrix=[0.87981     0.35619| 0.35619     0.87981|] Cmatrix=[0  0| 0  0|]
New Line.03551311_03551312 Phases=2 bus1=03551311.1.3 bus2=03551312.1.3 Units=km Length=0.095098 Rmatrix=[ 1.1475     0.13703| 0.13703      1.1475|] Xmatrix=[0.87981     0.35619| 0.35619     0.87981|] Cmatrix=[0  0| 0  0|]
New Line.03551315_03551316 Phases=3 bus1=03551315.1.2.3 bus2=03551316.1.2.3 Units=km Length=0.13637 Rmatrix=[1.0822       0.139       0.139|  0.139      1.0822       0.139|  0.139       0.139      1.0822|] Xmatrix=[0.83869     0.34853     0.34853| 0.34853     0.83869     0.34853| 0.34853     0.34853     0.83869|] Cmatrix=[0  0  0| 0  0  0| 0  0  0|]
New Line.03551367_03551367a Phases=2 bus1=03551367.2.3 bus2=03551367a.2.3 Units=km Length=0.003048 Rmatrix=[0.12456     0.03762| 0.03762     0.12456|] Xmatrix=[ 0.6121     0.23447| 0.23447      0.6121|] Cmatrix=[0  0| 0  0|]
New Line.03551316_03551317 Phases=3 bus1=03551316.1.2.3 bus2=03551317.1.2.3 Units=km Length=0.064313 Rmatrix=[1.0822       0.139       0.139|  0.139      1.0822       0.139|  0.139       0.139      1.0822|] Xmatrix=[0.83869     0.34853     0.34853| 0.34853     0.83869     0.34853| 0.34853     0.34853     0.83869|] Cmatrix=[0  0  0| 0  0  0| 0  0  0|]
New Line.03551317_03551318 Phases=3 bus1=03551317.1.2.3 bus2=03551318.1.2.3 Units=km Length=0.10333 Rmatrix=[ 0.44084    0.091098    0.091098| 0.091098     0.44084    0.091098| 0.091098    0.091098     0.44084|] Xmatrix=[0.73502      0.2734      0.2734|  0.2734     0.73502      0.2734|  0.2734      0.2734     0.73502|] Cmatrix=[0  0  0| 0  0  0| 0  0  0|]
New Line.03551318_03551319 Phases=3 bus1=03551318.1.2.3 bus2=03551319.1.2.3 Units=km Length=0.062179 Rmatrix=[1.0822       0.139       0.139|  0.139      1.0822       0.139|  0.139       0.139      1.0822|] Xmatrix=[0.83869     0.34853     0.34853| 0.34853     0.83869     0.34853| 0.34853     0.34853     0.83869|] Cmatrix=[0  0  0| 0  0  0| 0  0  0|]
New Line.03551318_03551365 Phases=2 bus1=03551318.1.3 bus2=03551365.1.3 Units=km Length=0.060046 Rmatrix=[1.0822       0.139|  0.139      1.0822|] Xmatrix=[0.83869     0.34853| 0.34853     0.83869|] Cmatrix=[0  0| 0  0|]
New Line.03551319_03551320 Phases=3 bus1=03551319.1.2.3 bus2=03551320.1.2.3 Units=km Length=0.072664 Rmatrix=[1.0822       0.139       0.139|  0.139      1.0822       0.139|  0.139       0.139      1.0822|] Xmatrix=[0.83869     0.34853     0.34853| 0.34853     0.83869     0.34853| 0.34853     0.34853     0.83869|] Cmatrix=[0  0  0| 0  0  0| 0  0  0|]
New Line.03551365_03551366 Phases=2 bus1=03551365.1.3 bus2=03551366.1.3 Units=km Length=0.003048 Rmatrix=[1.0822       0.139|  0.139      1.0822|] Xmatrix=[0.83869     0.34853| 0.34853     0.83869|] Cmatrix=[0  0| 0  0|]
New Line.03551320_03551321 Phases=3 bus1=03551320.1.2.3 bus2=03551321.1.2.3 Units=km Length=0.067696 Rmatrix=[1.0822       0.139       0.139|  0.139      1.0822       0.139|  0.139       0.139      1.0822|] Xmatrix=[0.83869     0.34853     0.34853| 0.34853     0.83869     0.34853| 0.34853     0.34853     0.83869|] Cmatrix=[0  0  0| 0  0  0| 0  0  0|]
New Line.03551321_03551322 Phases=3 bus1=03551321.1.2.3 bus2=03551322.1.2.3 Units=km Length=0.076871 Rmatrix=[1.0822       0.139       0.139|  0.139      1.0822       0.139|  0.139       0.139      1.0822|] Xmatrix=[0.83869     0.34853     0.34853| 0.34853     0.83869     0.34853| 0.34853     0.34853     0.83869|] Cmatrix=[0  0  0| 0  0  0| 0  0  0|]
New Line.03551322_03551323 Phases=3 bus1=03551322.1.2.3 bus2=03551323.1.2.3 Units=km Length=0.06602 Rmatrix=[1.0822       0.139       0.139|  0.139      1.0822       0.139|  0.139       0.139      1.0822|] Xmatrix=[0.83869     0.34853     0.34853| 0.34853     0.83869     0.34853| 0.34853     0.34853     0.83869|] Cmatrix=[0  0  0| 0  0  0| 0  0  0|]
New Line.03551323_03551324 Phases=3 bus1=03551323.1.2.3 bus2=03551324.1.2.3 Units=km Length=0.048097 Rmatrix=[1.0822       0.139       0.139|  0.139      1.0822       0.139|  0.139       0.139      1.0822|] Xmatrix=[0.83869     0.34853     0.34853| 0.34853     0.83869     0.34853| 0.34853     0.34853     0.83869|] Cmatrix=[0  0  0| 0  0  0| 0  0  0|]
New Line.03551323_03551326 Phases=2 bus1=03551323.1.2 bus2=03551326.1.2 Units=km Length=0.064313 Rmatrix=[ 1.6358     0.13845| 0.13845      1.6358|] Xmatrix=[0.90256     0.39469| 0.39469     0.90256|] Cmatrix=[0  0| 0  0|]
New Line.03551323_03551348 Phases=2 bus1=03551323.2.3 bus2=03551348.2.3 Units=km Length=0.035448 Rmatrix=[ 1.6358     0.13845| 0.13845      1.6358|] Xmatrix=[0.90256     0.39469| 0.39469     0.90256|] Cmatrix=[0  0| 0  0|]
New Line.03551324_03551325 Phases=3 bus1=03551324.1.2.3 bus2=03551325.1.2.3 Units=km Length=0.22424 Rmatrix=[1.0822       0.139       0.139|  0.139      1.0822       0.139|  0.139       0.139      1.0822|] Xmatrix=[0.83869     0.34853     0.34853| 0.34853     0.83869     0.34853| 0.34853     0.34853     0.83869|] Cmatrix=[0  0  0| 0  0  0| 0  0  0|]
New Line.03551326_03551327 Phases=2 bus1=03551326.1.2 bus2=03551327.1.2 Units=km Length=0.052273 Rmatrix=[1.0822       0.139|  0.139      1.0822|] Xmatrix=[0.83869     0.34853| 0.34853     0.83869|] Cmatrix=[0  0| 0  0|]
New Line.03551348_03551349 Phases=2 bus1=03551348.2.3 bus2=03551349.2.3 Units=km Length=0.062179 Rmatrix=[ 1.6358     0.13845| 0.13845      1.6358|] Xmatrix=[0.90256     0.39469| 0.39469     0.90256|] Cmatrix=[0  0| 0  0|]
New Line.03551327_03551333 Phases=2 bus1=03551327.1.2 bus2=03551333.1.2 Units=km Length=0.075621 Rmatrix=[1.0822       0.139|  0.139      1.0822|] Xmatrix=[0.83869     0.34853| 0.34853     0.83869|] Cmatrix=[0  0| 0  0|]
New Line.03551327_03551328 Phases=1 bus1=03551327.1 bus2=03551328.1 Units=km Length=0.003048 Rmatrix=0.086942 Xmatrix=0.37762 Cmatrix=0
New Line.03551333_03551334 Phases=2 bus1=03551333.1.2 bus2=03551334.1.2 Units=km Length=0.012497 Rmatrix=[1.0822       0.139|  0.139      1.0822|] Xmatrix=[0.83869     0.34853| 0.34853     0.83869|] Cmatrix=[0  0| 0  0|]
New Line.03551333_03551335 Phases=2 bus1=03551333.1.2 bus2=03551335.1.2 Units=km Length=0.04511 Rmatrix=[ 1.1475     0.13703| 0.13703      1.1475|] Xmatrix=[0.87981     0.35619| 0.35619     0.87981|] Cmatrix=[0  0| 0  0|]
New Line.03551333_03551346 Phases=2 bus1=03551333.1.2 bus2=03551346.1.2 Units=km Length=0.031791 Rmatrix=[ 1.1475     0.13703| 0.13703      1.1475|] Xmatrix=[0.87981     0.35619| 0.35619     0.87981|] Cmatrix=[0  0| 0  0|]
New Line.03551328a_03551329 Phases=1 bus1=03551328a.1 bus2=03551329.1 Units=km Length=0.029261 Rmatrix=0.5935 Xmatrix=0.47277 Cmatrix=0
New Line.03551329_03551330 Phases=1 bus1=03551329.1 bus2=03551330.1 Units=km Length=0.087478 Rmatrix=0.5935 Xmatrix=0.47277 Cmatrix=0
New Line.03551330_03551331 Phases=1 bus1=03551330.1 bus2=03551331.1 Units=km Length=0.10759 Rmatrix=0.5935 Xmatrix=0.47277 Cmatrix=0
New Line.03551331_03551332 Phases=1 bus1=03551331.1 bus2=03551332.1 Units=km Length=0.003048 Rmatrix=0.5935 Xmatrix=0.47277 Cmatrix=0
New Line.03551335_03551336 Phases=2 bus1=03551335.1.2 bus2=03551336.1.2 Units=km Length=0.038344 Rmatrix=[ 1.1475     0.13703| 0.13703      1.1475|] Xmatrix=[0.87981     0.35619| 0.35619     0.87981|] Cmatrix=[0  0| 0  0|]
New Line.03551335_03551345 Phases=2 bus1=03551335.1.2 bus2=03551345.1.2 Units=km Length=0.028651 Rmatrix=[ 1.1475     0.13703| 0.13703      1.1475|] Xmatrix=[0.87981     0.35619| 0.35619     0.87981|] Cmatrix=[0  0| 0  0|]
New Line.03551346_03551347 Phases=2 bus1=03551346.1.2 bus2=03551347.1.2 Units=km Length=0.058522 Rmatrix=[ 1.1475     0.13703| 0.13703      1.1475|] Xmatrix=[0.87981     0.35619| 0.35619     0.87981|] Cmatrix=[0  0| 0  0|]
New Line.03551336_03551337 Phases=2 bus1=03551336.1.2 bus2=03551337.1.2 Units=km Length=0.012984 Rmatrix=[ 1.1475     0.13703| 0.13703      1.1475|] Xmatrix=[0.87981     0.35619| 0.35619     0.87981|] Cmatrix=[0  0| 0  0|]
New Line.03551336_03551339 Phases=2 bus1=03551336.1.2 bus2=03551339.1.2 Units=km Length=0.08766 Rmatrix=[ 1.1475     0.13703| 0.13703      1.1475|] Xmatrix=[0.87981     0.35619| 0.35619     0.87981|] Cmatrix=[0  0| 0  0|]
New Line.03551336_03551342 Phases=2 bus1=03551336.1.2 bus2=03551342.1.2 Units=km Length=0.028956 Rmatrix=[ 1.1475     0.13703| 0.13703      1.1475|] Xmatrix=[0.87981     0.35619| 0.35619     0.87981|] Cmatrix=[0  0| 0  0|]
New Line.03551337_03551337a Phases=2 bus1=03551337.1.2 bus2=03551337a.1.2 Units=km Length=0.003048 Rmatrix=[0.12456     0.03762| 0.03762     0.12456|] Xmatrix=[ 0.6121     0.23447| 0.23447      0.6121|] Cmatrix=[0  0| 0  0|]
New Line.03551339_03551340 Phases=2 bus1=03551339.1.2 bus2=03551340.1.2 Units=km Length=0.051176 Rmatrix=[ 1.1475     0.13703| 0.13703      1.1475|] Xmatrix=[0.87981     0.35619| 0.35619     0.87981|] Cmatrix=[0  0| 0  0|]
New Line.03551342_03551343 Phases=2 bus1=03551342.1.2 bus2=03551343.1.2 Units=km Length=0.10074 Rmatrix=[ 1.1475     0.13703| 0.13703      1.1475|] Xmatrix=[0.87981     0.35619| 0.35619     0.87981|] Cmatrix=[0  0| 0  0|]
New Line.03551337a_03551338 Phases=2 bus1=03551337a.1.2 bus2=03551338.1.2 Units=km Length=0.094488 Rmatrix=[0.71544     0.12194| 0.12194     0.71544|] Xmatrix=[  0.778     0.30523| 0.30523       0.778|] Cmatrix=[0  0| 0  0|]
New Line.03551340_03551341 Phases=2 bus1=03551340.1.2 bus2=03551341.1.2 Units=km Length=0.058247 Rmatrix=[ 1.1475     0.13703| 0.13703      1.1475|] Xmatrix=[0.87981     0.35619| 0.35619     0.87981|] Cmatrix=[0  0| 0  0|]
New Line.03551343_03551344 Phases=2 bus1=03551343.1.2 bus2=03551344.1.2 Units=km Length=0.003048 Rmatrix=[ 1.1475     0.13703| 0.13703      1.1475|] Xmatrix=[0.87981     0.35619| 0.35619     0.87981|] Cmatrix=[0  0| 0  0|]
New Line.03551349_03551350 Phases=2 bus1=03551349.2.3 bus2=03551350.2.3 Units=km Length=0.07748 Rmatrix=[ 1.6358     0.13845| 0.13845      1.6358|] Xmatrix=[0.90256     0.39469| 0.39469     0.90256|] Cmatrix=[0  0| 0  0|]
New Line.03551350_03551356 Phases=2 bus1=03551350.2.3 bus2=03551356.2.3 Units=km Length=0.067635 Rmatrix=[ 1.6358     0.13845| 0.13845      1.6358|] Xmatrix=[0.90256     0.39469| 0.39469     0.90256|] Cmatrix=[0  0| 0  0|]
New Line.03551350_03551350a Phases=2 bus1=03551350.2.3 bus2=03551350a.2.3 Units=km Length=0.003048 Rmatrix=[0.12456     0.03762| 0.03762     0.12456|] Xmatrix=[ 0.6121     0.23447| 0.23447      0.6121|] Cmatrix=[0  0| 0  0|]
New Line.03551356_03551357 Phases=2 bus1=03551356.2.3 bus2=03551357.2.3 Units=km Length=0.034412 Rmatrix=[ 1.6358     0.13845| 0.13845      1.6358|] Xmatrix=[0.90256     0.39469| 0.39469     0.90256|] Cmatrix=[0  0| 0  0|]
New Line.03551350a_03551351 Phases=2 bus1=03551350a.2.3 bus2=03551351.2.3 Units=km Length=0.062484 Rmatrix=[0.71544     0.12194| 0.12194     0.71544|] Xmatrix=[  0.778     0.30523| 0.30523       0.778|] Cmatrix=[0  0| 0  0|]
New Line.03551351_03551352 Phases=2 bus1=03551351.2.3 bus2=03551352.2.3 Units=km Length=0.089611 Rmatrix=[0.71544     0.12194| 0.12194     0.71544|] Xmatrix=[  0.778     0.30523| 0.30523       0.778|] Cmatrix=[0  0| 0  0|]
New Line.03551352_03551353 Phases=2 bus1=03551352.2.3 bus2=03551353.2.3 Units=km Length=0.085649 Rmatrix=[0.71544     0.12194| 0.12194     0.71544|] Xmatrix=[  0.778     0.30523| 0.30523       0.778|] Cmatrix=[0  0| 0  0|]
New Line.03551353_03551354 Phases=2 bus1=03551353.2.3 bus2=03551354.2.3 Units=km Length=0.050597 Rmatrix=[0.71544     0.12194| 0.12194     0.71544|] Xmatrix=[  0.778     0.30523| 0.30523       0.778|] Cmatrix=[0  0| 0  0|]
New Line.03551354_03551355 Phases=2 bus1=03551354.2.3 bus2=03551355.2.3 Units=km Length=0.003048 Rmatrix=[0.71544     0.12194| 0.12194     0.71544|] Xmatrix=[  0.778     0.30523| 0.30523       0.778|] Cmatrix=[0  0| 0  0|]
New Line.03551357_03551358 Phases=2 bus1=03551357.2.3 bus2=03551358.2.3 Units=km Length=0.053249 Rmatrix=[ 1.6358     0.13845| 0.13845      1.6358|] Xmatrix=[0.90256     0.39469| 0.39469     0.90256|] Cmatrix=[0  0| 0  0|]
New Line.03551358_03551359 Phases=2 bus1=03551358.2.3 bus2=03551359.2.3 Units=km Length=0.030815 Rmatrix=[ 1.6358     0.13845| 0.13845      1.6358|] Xmatrix=[0.90256     0.39469| 0.39469     0.90256|] Cmatrix=[0  0| 0  0|]
New Line.03551359_03551360 Phases=2 bus1=03551359.2.3 bus2=03551360.2.3 Units=km Length=0.10897 Rmatrix=[ 1.6358     0.13845| 0.13845      1.6358|] Xmatrix=[0.90256     0.39469| 0.39469     0.90256|] Cmatrix=[0  0| 0  0|]
New Line.03551359_03551361 Phases=2 bus1=03551359.2.3 bus2=03551361.2.3 Units=km Length=0.040965 Rmatrix=[ 1.6358     0.13845| 0.13845      1.6358|] Xmatrix=[0.90256     0.39469| 0.39469     0.90256|] Cmatrix=[0  0| 0  0|]
New Line.03551361_03551362 Phases=2 bus1=03551361.2.3 bus2=03551362.2.3 Units=km Length=0.070957 Rmatrix=[ 1.1475     0.13703| 0.13703      1.1475|] Xmatrix=[0.87981     0.35619| 0.35619     0.87981|] Cmatrix=[0  0| 0  0|]
New Line.03551361_03551364 Phases=2 bus1=03551361.2.3 bus2=03551364.2.3 Units=km Length=0.088301 Rmatrix=[ 1.6358     0.13845| 0.13845      1.6358|] Xmatrix=[0.90256     0.39469| 0.39469     0.90256|] Cmatrix=[0  0| 0  0|]
New Line.03551362_03551363 Phases=2 bus1=03551362.2.3 bus2=03551363.2.3 Units=km Length=0.048768 Rmatrix=[ 1.1475     0.13703| 0.13703      1.1475|] Xmatrix=[0.87981     0.35619| 0.35619     0.87981|] Cmatrix=[0  0| 0  0|]
New Line.03551367a_03551368 Phases=2 bus1=03551367a.2.3 bus2=03551368.2.3 Units=km Length=0.059375 Rmatrix=[ 1.6358     0.13845| 0.13845      1.6358|] Xmatrix=[0.90256     0.39469| 0.39469     0.90256|] Cmatrix=[0  0| 0  0|]
New Line.03551368_03551369 Phases=2 bus1=03551368.2.3 bus2=03551369.2.3 Units=km Length=0.16179 Rmatrix=[ 1.6358     0.13845| 0.13845      1.6358|] Xmatrix=[0.90256     0.39469| 0.39469     0.90256|] Cmatrix=[0  0| 0  0|]
New Line.03551369_03551370 Phases=2 bus1=03551369.2.3 bus2=03551370.2.3 Units=km Length=0.092172 Rmatrix=[ 1.6358     0.13845| 0.13845      1.6358|] Xmatrix=[0.90256     0.39469| 0.39469     0.90256|] Cmatrix=[0  0| 0  0|]
New Line.03551370_03551371 Phases=2 bus1=03551370.2.3 bus2=03551371.2.3 Units=km Length=0.05395 Rmatrix=[ 1.1475     0.13703| 0.13703      1.1475|] Xmatrix=[0.87981     0.35619| 0.35619     0.87981|] Cmatrix=[0  0| 0  0|]
New Line.03551370_03551390 Phases=2 bus1=03551370.2.3 bus2=03551390.2.3 Units=km Length=0.080863 Rmatrix=[ 1.1475     0.13703| 0.13703      1.1475|] Xmatrix=[0.87981     0.35619| 0.35619     0.87981|] Cmatrix=[0  0| 0  0|]
New Line.03551370_03551391 Phases=2 bus1=03551370.2.3 bus2=03551391.2.3 Units=km Length=0.025634 Rmatrix=[ 1.1475     0.13703| 0.13703      1.1475|] Xmatrix=[0.87981     0.35619| 0.35619     0.87981|] Cmatrix=[0  0| 0  0|]
New Line.03551371_03551372 Phases=2 bus1=03551371.2.3 bus2=03551372.2.3 Units=km Length=0.032217 Rmatrix=[ 1.1475     0.13703| 0.13703      1.1475|] Xmatrix=[0.87981     0.35619| 0.35619     0.87981|] Cmatrix=[0  0| 0  0|]
New Line.03551371_03551389 Phases=2 bus1=03551371.2.3 bus2=03551389.2.3 Units=km Length=0.070378 Rmatrix=[ 1.1475     0.13703| 0.13703      1.1475|] Xmatrix=[0.87981     0.35619| 0.35619     0.87981|] Cmatrix=[0  0| 0  0|]
New Line.03551372_03551373 Phases=2 bus1=03551372.2.3 bus2=03551373.2.3 Units=km Length=0.082692 Rmatrix=[ 1.1475     0.13703| 0.13703      1.1475|] Xmatrix=[0.87981     0.35619| 0.35619     0.87981|] Cmatrix=[0  0| 0  0|]
New Line.03551372_03551387 Phases=2 bus1=03551372.2.3 bus2=03551387.2.3 Units=km Length=0.077572 Rmatrix=[ 1.1475     0.13703| 0.13703      1.1475|] Xmatrix=[0.87981     0.35619| 0.35619     0.87981|] Cmatrix=[0  0| 0  0|]
New Line.03551372_03551388 Phases=2 bus1=03551372.2.3 bus2=03551388.2.3 Units=km Length=0.013533 Rmatrix=[ 1.1475     0.13703| 0.13703      1.1475|] Xmatrix=[0.87981     0.35619| 0.35619     0.87981|] Cmatrix=[0  0| 0  0|]
New Line.03551373_03551374 Phases=2 bus1=03551373.2.3 bus2=03551374.2.3 Units=km Length=0.046665 Rmatrix=[ 1.1475     0.13703| 0.13703      1.1475|] Xmatrix=[0.87981     0.35619| 0.35619     0.87981|] Cmatrix=[0  0| 0  0|]
New Line.03551374_03551375 Phases=2 bus1=03551374.2.3 bus2=03551375.2.3 Units=km Length=0.012253 Rmatrix=[ 1.1475     0.13703| 0.13703      1.1475|] Xmatrix=[0.87981     0.35619| 0.35619     0.87981|] Cmatrix=[0  0| 0  0|]
New Line.03551374_03551378 Phases=2 bus1=03551374.2.3 bus2=03551378.2.3 Units=km Length=0.049225 Rmatrix=[ 1.1475     0.13703| 0.13703      1.1475|] Xmatrix=[0.87981     0.35619| 0.35619     0.87981|] Cmatrix=[0  0| 0  0|]
New Line.03551375_03551376 Phases=2 bus1=03551375.2.3 bus2=03551376.2.3 Units=km Length=0.003048 Rmatrix=[ 1.1475     0.13703| 0.13703      1.1475|] Xmatrix=[0.87981     0.35619| 0.35619     0.87981|] Cmatrix=[0  0| 0  0|]
New Line.03551375_03551377 Phases=2 bus1=03551375.2.3 bus2=03551377.2.3 Units=km Length=0.066751 Rmatrix=[ 1.1475     0.13703| 0.13703      1.1475|] Xmatrix=[0.87981     0.35619| 0.35619     0.87981|] Cmatrix=[0  0| 0  0|]
New Line.03551378_03551379 Phases=2 bus1=03551378.2.3 bus2=03551379.2.3 Units=km Length=0.055199 Rmatrix=[ 1.1475     0.13703| 0.13703      1.1475|] Xmatrix=[0.87981     0.35619| 0.35619     0.87981|] Cmatrix=[0  0| 0  0|]
New Line.03551379_03551380 Phases=2 bus1=03551379.2.3 bus2=03551380.2.3 Units=km Length=0.045933 Rmatrix=[ 1.1475     0.13703| 0.13703      1.1475|] Xmatrix=[0.87981     0.35619| 0.35619     0.87981|] Cmatrix=[0  0| 0  0|]
New Line.03551379_03551385 Phases=2 bus1=03551379.2.3 bus2=03551385.2.3 Units=km Length=0.013381 Rmatrix=[ 1.1475     0.13703| 0.13703      1.1475|] Xmatrix=[0.87981     0.35619| 0.35619     0.87981|] Cmatrix=[0  0| 0  0|]
New Line.03551380_03551381 Phases=2 bus1=03551380.2.3 bus2=03551381.2.3 Units=km Length=0.026091 Rmatrix=[ 1.1475     0.13703| 0.13703      1.1475|] Xmatrix=[0.87981     0.35619| 0.35619     0.87981|] Cmatrix=[0  0| 0  0|]
New Line.03551385_03551385a Phases=2 bus1=03551385.2.3 bus2=03551385a.2.3 Units=km Length=0.003048 Rmatrix=[0.12456     0.03762| 0.03762     0.12456|] Xmatrix=[ 0.6121     0.23447| 0.23447      0.6121|] Cmatrix=[0  0| 0  0|]
New Line.03551381_03551382 Phases=2 bus1=03551381.2.3 bus2=03551382.2.3 Units=km Length=0.032339 Rmatrix=[ 1.1475     0.13703| 0.13703      1.1475|] Xmatrix=[0.87981     0.35619| 0.35619     0.87981|] Cmatrix=[0  0| 0  0|]
New Line.03551382_03551383 Phases=2 bus1=03551382.2.3 bus2=03551383.2.3 Units=km Length=0.05523 Rmatrix=[ 1.1475     0.13703| 0.13703      1.1475|] Xmatrix=[0.87981     0.35619| 0.35619     0.87981|] Cmatrix=[0  0| 0  0|]
New Line.03551383_03551383a Phases=2 bus1=03551383.2.3 bus2=03551383a.2.3 Units=km Length=0.003048 Rmatrix=[0.12456     0.03762| 0.03762     0.12456|] Xmatrix=[ 0.6121     0.23447| 0.23447      0.6121|] Cmatrix=[0  0| 0  0|]
New Line.03551383a_03551384 Phases=2 bus1=03551383a.2.3 bus2=03551384.2.3 Units=km Length=0.094793 Rmatrix=[0.71544     0.12194| 0.12194     0.71544|] Xmatrix=[  0.778     0.30523| 0.30523       0.778|] Cmatrix=[0  0| 0  0|]
New Line.03551385a_03551386 Phases=2 bus1=03551385a.2.3 bus2=03551386.2.3 Units=km Length=0.056083 Rmatrix=[0.64403     0.11385| 0.11385     0.64403|] Xmatrix=[0.78314     0.29823| 0.29823     0.78314|] Cmatrix=[0  0| 0  0|]
New Line.03551394a_03551395 Phases=2 bus1=03551394a.2.3 bus2=03551395.2.3 Units=km Length=0.059527 Rmatrix=[ 1.6358     0.13845| 0.13845      1.6358|] Xmatrix=[0.90256     0.39469| 0.39469     0.90256|] Cmatrix=[0  0| 0  0|]
New Line.035513a_03551301 Phases=2 bus1=035513a.1.3 bus2=03551301.1.3 Units=km Length=0.068336 Rmatrix=[ 1.6358     0.13845| 0.13845      1.6358|] Xmatrix=[0.90256     0.39469| 0.39469     0.90256|] Cmatrix=[0  0| 0  0|]
New Line.035515_035516 Phases=3 bus1=035515.1.2.3 bus2=035516.1.2.3 Units=km Length=0.086929 Rmatrix=[  0.2161    0.056321    0.056321| 0.056321      0.2161    0.056321| 0.056321    0.056321      0.2161|] Xmatrix=[ 0.6425     0.24322     0.24322| 0.24322      0.6425     0.24322| 0.24322     0.24322      0.6425|] Cmatrix=[0  0  0| 0  0  0| 0  0  0|]
New Line.035516_035517 Phases=3 bus1=035516.1.2.3 bus2=035517.1.2.3 Units=km Length=0.024689 Rmatrix=[  0.2161    0.056321    0.056321| 0.056321      0.2161    0.056321| 0.056321    0.056321      0.2161|] Xmatrix=[ 0.6425     0.24322     0.24322| 0.24322      0.6425     0.24322| 0.24322     0.24322      0.6425|] Cmatrix=[0  0  0| 0  0  0| 0  0  0|]
New Line.035516_035516a Phases=2 bus1=035516.2.3 bus2=035516a.2.3 Units=km Length=0.003048 Rmatrix=[0.12456     0.03762| 0.03762     0.12456|] Xmatrix=[ 0.6121     0.23447| 0.23447      0.6121|] Cmatrix=[0  0| 0  0|]
New Line.035517_035518 Phases=3 bus1=035517.1.2.3 bus2=035518.1.2.3 Units=km Length=0.083454 Rmatrix=[  0.2161    0.056321    0.056321| 0.056321      0.2161    0.056321| 0.056321    0.056321      0.2161|] Xmatrix=[ 0.6425     0.24322     0.24322| 0.24322      0.6425     0.24322| 0.24322     0.24322      0.6425|] Cmatrix=[0  0  0| 0  0  0| 0  0  0|]
New Line.035517_035517a Phases=2 bus1=035517.1.3 bus2=035517a.1.3 Units=km Length=0.003048 Rmatrix=[0.12456     0.03762| 0.03762     0.12456|] Xmatrix=[ 0.6121     0.23447| 0.23447      0.6121|] Cmatrix=[0  0| 0  0|]
New Line.03551601_03551602 Phases=2 bus1=03551601.2.3 bus2=03551602.2.3 Units=km Length=0.052791 Rmatrix=[1.0822       0.139|  0.139      1.0822|] Xmatrix=[0.83869     0.34853| 0.34853     0.83869|] Cmatrix=[0  0| 0  0|]
New Line.03551601_03551603 Phases=2 bus1=03551601.2.3 bus2=03551603.2.3 Units=km Length=0.014874 Rmatrix=[ 1.1475     0.13703| 0.13703      1.1475|] Xmatrix=[0.87981     0.35619| 0.35619     0.87981|] Cmatrix=[0  0| 0  0|]
New Line.03551603_03551604 Phases=2 bus1=03551603.2.3 bus2=03551604.2.3 Units=km Length=0.046756 Rmatrix=[ 1.1475     0.13703| 0.13703      1.1475|] Xmatrix=[0.87981     0.35619| 0.35619     0.87981|] Cmatrix=[0  0| 0  0|]
New Line.035516a_03551601 Phases=2 bus1=035516a.2.3 bus2=03551601.2.3 Units=km Length=0.011674 Rmatrix=[ 1.1475     0.13703| 0.13703      1.1475|] Xmatrix=[0.87981     0.35619| 0.35619     0.87981|] Cmatrix=[0  0| 0  0|]
New Line.035516a_03551605 Phases=2 bus1=035516a.2.3 bus2=03551605.2.3 Units=km Length=0.021123 Rmatrix=[ 1.1475     0.13703| 0.13703      1.1475|] Xmatrix=[0.87981     0.35619| 0.35619     0.87981|] Cmatrix=[0  0| 0  0|]
New Line.035518_03551801 Phases=2 bus1=035518.1.3 bus2=03551801.1.3 Units=km Length=0.042885 Rmatrix=[1.0822       0.139|  0.139      1.0822|] Xmatrix=[0.83869     0.34853| 0.34853     0.83869|] Cmatrix=[0  0| 0  0|]
New Line.035518_035519 Phases=3 bus1=035518.1.2.3 bus2=035519.1.2.3 Units=km Length=0.033284 Rmatrix=[  0.2161    0.056321    0.056321| 0.056321      0.2161    0.056321| 0.056321    0.056321      0.2161|] Xmatrix=[ 0.6425     0.24322     0.24322| 0.24322      0.6425     0.24322| 0.24322     0.24322      0.6425|] Cmatrix=[0  0  0| 0  0  0| 0  0  0|]
New Line.035518_03551802 Phases=2 bus1=035518.2.3 bus2=03551802.2.3 Units=km Length=0.10159 Rmatrix=[1.0822       0.139|  0.139      1.0822|] Xmatrix=[0.83869     0.34853| 0.34853     0.83869|] Cmatrix=[0  0| 0  0|]
New Line.03551701_03551702 Phases=2 bus1=03551701.1.3 bus2=03551702.1.3 Units=km Length=0.028834 Rmatrix=[1.0822       0.139|  0.139      1.0822|] Xmatrix=[0.83869     0.34853| 0.34853     0.83869|] Cmatrix=[0  0| 0  0|]
New Line.03551702_03551703 Phases=2 bus1=03551702.1.3 bus2=03551703.1.3 Units=km Length=0.0267 Rmatrix=[1.0822       0.139|  0.139      1.0822|] Xmatrix=[0.83869     0.34853| 0.34853     0.83869|] Cmatrix=[0  0| 0  0|]
New Line.03551703_03551704 Phases=2 bus1=03551703.1.3 bus2=03551704.1.3 Units=km Length=0.056175 Rmatrix=[ 1.1475     0.13703| 0.13703      1.1475|] Xmatrix=[0.87981     0.35619| 0.35619     0.87981|] Cmatrix=[0  0| 0  0|]
New Line.03551703_03551708 Phases=2 bus1=03551703.1.3 bus2=03551708.1.3 Units=km Length=0.11345 Rmatrix=[1.0822       0.139|  0.139      1.0822|] Xmatrix=[0.83869     0.34853| 0.34853     0.83869|] Cmatrix=[0  0| 0  0|]
New Line.03551704_03551705 Phases=2 bus1=03551704.1.3 bus2=03551705.1.3 Units=km Length=0.060015 Rmatrix=[ 1.1475     0.13703| 0.13703      1.1475|] Xmatrix=[0.87981     0.35619| 0.35619     0.87981|] Cmatrix=[0  0| 0  0|]
New Line.03551708_03551709 Phases=2 bus1=03551708.1.3 bus2=03551709.1.3 Units=km Length=0.044623 Rmatrix=[1.0822       0.139|  0.139      1.0822|] Xmatrix=[0.83869     0.34853| 0.34853     0.83869|] Cmatrix=[0  0| 0  0|]
New Line.03551708_03551715 Phases=2 bus1=03551708.1.3 bus2=03551715.1.3 Units=km Length=0.091166 Rmatrix=[1.0822       0.139|  0.139      1.0822|] Xmatrix=[0.83869     0.34853| 0.34853     0.83869|] Cmatrix=[0  0| 0  0|]
New Line.03551708_03551716 Phases=2 bus1=03551708.1.3 bus2=03551716.1.3 Units=km Length=0.052487 Rmatrix=[0.71544     0.12194| 0.12194     0.71544|] Xmatrix=[  0.778     0.30523| 0.30523       0.778|] Cmatrix=[0  0| 0  0|]
New Line.03551705_03551706 Phases=2 bus1=03551705.1.3 bus2=03551706.1.3 Units=km Length=0.044897 Rmatrix=[ 1.1475     0.13703| 0.13703      1.1475|] Xmatrix=[0.87981     0.35619| 0.35619     0.87981|] Cmatrix=[0  0| 0  0|]
New Line.03551706_03551707 Phases=2 bus1=03551706.1.3 bus2=03551707.1.3 Units=km Length=0.003048 Rmatrix=[ 1.1475     0.13703| 0.13703      1.1475|] Xmatrix=[0.87981     0.35619| 0.35619     0.87981|] Cmatrix=[0  0| 0  0|]
New Line.03551709_03551709a Phases=2 bus1=03551709.1.3 bus2=03551709a.1.3 Units=km Length=0.003048 Rmatrix=[0.12456     0.03762| 0.03762     0.12456|] Xmatrix=[ 0.6121     0.23447| 0.23447      0.6121|] Cmatrix=[0  0| 0  0|]
New Line.03551709a_03551710 Phases=2 bus1=03551709a.1.3 bus2=03551710.1.3 Units=km Length=0.12741 Rmatrix=[0.71544     0.12194| 0.12194     0.71544|] Xmatrix=[  0.778     0.30523| 0.30523       0.778|] Cmatrix=[0  0| 0  0|]
New Line.03551710_03551711 Phases=2 bus1=03551710.1.3 bus2=03551711.1.3 Units=km Length=0.069494 Rmatrix=[0.71544     0.12194| 0.12194     0.71544|] Xmatrix=[  0.778     0.30523| 0.30523       0.778|] Cmatrix=[0  0| 0  0|]
New Line.03551710_03551712 Phases=2 bus1=03551710.1.3 bus2=03551712.1.3 Units=km Length=0.16002 Rmatrix=[0.71544     0.12194| 0.12194     0.71544|] Xmatrix=[  0.778     0.30523| 0.30523       0.778|] Cmatrix=[0  0| 0  0|]
New Line.03551710_03551714 Phases=2 bus1=03551710.1.3 bus2=03551714.1.3 Units=km Length=0.15179 Rmatrix=[0.71544     0.12194| 0.12194     0.71544|] Xmatrix=[  0.778     0.30523| 0.30523       0.778|] Cmatrix=[0  0| 0  0|]
New Line.03551712_03551713 Phases=2 bus1=03551712.1.3 bus2=03551713.1.3 Units=km Length=0.10942 Rmatrix=[0.71544     0.12194| 0.12194     0.71544|] Xmatrix=[  0.778     0.30523| 0.30523       0.778|] Cmatrix=[0  0| 0  0|]
New Line.035517a_03551701 Phases=2 bus1=035517a.1.3 bus2=03551701.1.3 Units=km Length=0.071445 Rmatrix=[1.0822       0.139|  0.139      1.0822|] Xmatrix=[0.83869     0.34853| 0.34853     0.83869|] Cmatrix=[0  0| 0  0|]
New Line.03551802_03551803 Phases=2 bus1=03551802.2.3 bus2=03551803.2.3 Units=km Length=0.051603 Rmatrix=[1.0822       0.139|  0.139      1.0822|] Xmatrix=[0.83869     0.34853| 0.34853     0.83869|] Cmatrix=[0  0| 0  0|]
New Line.035519_035520 Phases=3 bus1=035519.1.2.3 bus2=035520.1.2.3 Units=km Length=0.08763 Rmatrix=[  0.2161    0.056321    0.056321| 0.056321      0.2161    0.056321| 0.056321    0.056321      0.2161|] Xmatrix=[ 0.6425     0.24322     0.24322| 0.24322      0.6425     0.24322| 0.24322     0.24322      0.6425|] Cmatrix=[0  0  0| 0  0  0| 0  0  0|]
New Line.035520_035521 Phases=3 bus1=035520.1.2.3 bus2=035521.1.2.3 Units=km Length=0.16505 Rmatrix=[  0.2161    0.056321    0.056321| 0.056321      0.2161    0.056321| 0.056321    0.056321      0.2161|] Xmatrix=[ 0.6425     0.24322     0.24322| 0.24322      0.6425     0.24322| 0.24322     0.24322      0.6425|] Cmatrix=[0  0  0| 0  0  0| 0  0  0|]
New Line.035520_035520a Phases=2 bus1=035520.1.3 bus2=035520a.1.3 Units=km Length=0.003048 Rmatrix=[0.12456     0.03762| 0.03762     0.12456|] Xmatrix=[ 0.6121     0.23447| 0.23447      0.6121|] Cmatrix=[0  0| 0  0|]
New Line.035521_035522 Phases=3 bus1=035521.1.2.3 bus2=035522.1.2.3 Units=km Length=0.018044 Rmatrix=[ 0.25131    0.062992    0.062992| 0.062992     0.25131    0.062992| 0.062992    0.062992     0.25131|] Xmatrix=[0.65223     0.24672     0.24672| 0.24672     0.65223     0.24672| 0.24672     0.24672     0.65223|] Cmatrix=[0  0  0| 0  0  0| 0  0  0|]
New Line.035520a_03552001 Phases=2 bus1=035520a.1.3 bus2=03552001.1.3 Units=km Length=0.07809 Rmatrix=[ 1.6358     0.13845| 0.13845      1.6358|] Xmatrix=[0.90256     0.39469| 0.39469     0.90256|] Cmatrix=[0  0| 0  0|]
New Line.035522_035523 Phases=3 bus1=035522.1.2.3 bus2=035523.1.2.3 Units=km Length=0.048463 Rmatrix=[ 0.25131    0.062992    0.062992| 0.062992     0.25131    0.062992| 0.062992    0.062992     0.25131|] Xmatrix=[0.65223     0.24672     0.24672| 0.24672     0.65223     0.24672| 0.24672     0.24672     0.65223|] Cmatrix=[0  0  0| 0  0  0| 0  0  0|]
New Line.035523_035524 Phases=3 bus1=035523.1.2.3 bus2=035524.1.2.3 Units=km Length=0.096012 Rmatrix=[ 0.25131    0.062992    0.062992| 0.062992     0.25131    0.062992| 0.062992    0.062992     0.25131|] Xmatrix=[0.65223     0.24672     0.24672| 0.24672     0.65223     0.24672| 0.24672     0.24672     0.65223|] Cmatrix=[0  0  0| 0  0  0| 0  0  0|]
New Line.035524_035524a Phases=3 bus1=035524.1.2.3 bus2=035524a.1.2.3 Units=km Length=0.003048 Rmatrix=[0.12456     0.03762     0.03762| 0.03762     0.12456     0.03762| 0.03762     0.03762     0.12456|] Xmatrix=[ 0.6121     0.23447     0.23447| 0.23447      0.6121     0.23447| 0.23447     0.23447      0.6121|] Cmatrix=[0  0  0| 0  0  0| 0  0  0|]
New Line.035524a_035525 Phases=3 bus1=035524a.1.2.3 bus2=035525.1.2.3 Units=km Length=0.063094 Rmatrix=[ 0.25131    0.062992    0.062992| 0.062992     0.25131    0.062992| 0.062992    0.062992     0.25131|] Xmatrix=[0.65223     0.24672     0.24672| 0.24672     0.65223     0.24672| 0.24672     0.24672     0.65223|] Cmatrix=[0  0  0| 0  0  0| 0  0  0|]
New Line.035525_03552501 Phases=3 bus1=035525.1.2.3 bus2=03552501.1.2.3 Units=km Length=0.04636 Rmatrix=[ 0.25131    0.062992    0.062992| 0.062992     0.25131    0.062992| 0.062992    0.062992     0.25131|] Xmatrix=[0.65223     0.24672     0.24672| 0.24672     0.65223     0.24672| 0.24672     0.24672     0.65223|] Cmatrix=[0  0  0| 0  0  0| 0  0  0|]
New Line.035525_035526 Phases=3 bus1=035525.1.2.3 bus2=035526.1.2.3 Units=km Length=0.021397 Rmatrix=[ 0.49377    0.097441    0.097441| 0.097441     0.49377    0.097441| 0.097441    0.097441     0.49377|] Xmatrix=[0.75372     0.28062     0.28062| 0.28062     0.75372     0.28062| 0.28062     0.28062     0.75372|] Cmatrix=[0  0  0| 0  0  0| 0  0  0|]
New Line.03552501_03552502 Phases=3 bus1=03552501.1.2.3 bus2=03552502.1.2.3 Units=km Length=0.053431 Rmatrix=[ 0.25131    0.062992    0.062992| 0.062992     0.25131    0.062992| 0.062992    0.062992     0.25131|] Xmatrix=[0.65223     0.24672     0.24672| 0.24672     0.65223     0.24672| 0.24672     0.24672     0.65223|] Cmatrix=[0  0  0| 0  0  0| 0  0  0|]
New Line.035526_03552601 Phases=3 bus1=035526.1.2.3 bus2=03552601.1.2.3 Units=km Length=0.12518 Rmatrix=[ 1.1475     0.13703     0.13703| 0.13703      1.1475     0.13703| 0.13703     0.13703      1.1475|] Xmatrix=[0.87981     0.35619     0.35619| 0.35619     0.87981     0.35619| 0.35619     0.35619     0.87981|] Cmatrix=[0  0  0| 0  0  0| 0  0  0|]
New Line.035526_035527 Phases=3 bus1=035526.1.2.3 bus2=035527.1.2.3 Units=km Length=0.018654 Rmatrix=[1.0822       0.139       0.139|  0.139      1.0822       0.139|  0.139       0.139      1.0822|] Xmatrix=[0.83869     0.34853     0.34853| 0.34853     0.83869     0.34853| 0.34853     0.34853     0.83869|] Cmatrix=[0  0  0| 0  0  0| 0  0  0|]
New Line.03552502_03552502a Phases=3 bus1=03552502.1.2.3 bus2=03552502a.1.2.3 Units=km Length=0.003048 Rmatrix=[0.12456     0.03762     0.03762| 0.03762     0.12456     0.03762| 0.03762     0.03762     0.12456|] Xmatrix=[ 0.6121     0.23447     0.23447| 0.23447      0.6121     0.23447| 0.23447     0.23447      0.6121|] Cmatrix=[0  0  0| 0  0  0| 0  0  0|]
New Line.03552502a_03552503 Phases=3 bus1=03552502a.1.2.3 bus2=03552503.1.2.3 Units=km Length=0.053005 Rmatrix=[ 0.25131    0.062992    0.062992| 0.062992     0.25131    0.062992| 0.062992    0.062992     0.25131|] Xmatrix=[0.65223     0.24672     0.24672| 0.24672     0.65223     0.24672| 0.24672     0.24672     0.65223|] Cmatrix=[0  0  0| 0  0  0| 0  0  0|]
New Line.03552503_03552510 Phases=3 bus1=03552503.1.2.3 bus2=03552510.1.2.3 Units=km Length=0.094701 Rmatrix=[ 0.25131    0.062992    0.062992| 0.062992     0.25131    0.062992| 0.062992    0.062992     0.25131|] Xmatrix=[0.65223     0.24672     0.24672| 0.24672     0.65223     0.24672| 0.24672     0.24672     0.65223|] Cmatrix=[0  0  0| 0  0  0| 0  0  0|]
New Line.03552503_03552503a Phases=3 bus1=03552503.1.2.3 bus2=03552503a.1.2.3 Units=km Length=0.003048 Rmatrix=[0.12456     0.03762     0.03762| 0.03762     0.12456     0.03762| 0.03762     0.03762     0.12456|] Xmatrix=[ 0.6121     0.23447     0.23447| 0.23447      0.6121     0.23447| 0.23447     0.23447      0.6121|] Cmatrix=[0  0  0| 0  0  0| 0  0  0|]
New Line.03552510_03552513 Phases=3 bus1=03552510.1.2.3 bus2=03552513.1.2.3 Units=km Length=0.14728 Rmatrix=[ 0.25131    0.062992    0.062992| 0.062992     0.25131    0.062992| 0.062992    0.062992     0.25131|] Xmatrix=[0.65223     0.24672     0.24672| 0.24672     0.65223     0.24672| 0.24672     0.24672     0.65223|] Cmatrix=[0  0  0| 0  0  0| 0  0  0|]
New Line.03552510_03552510a Phases=3 bus1=03552510.1.2.3 bus2=03552510a.1.2.3 Units=km Length=0.003048 Rmatrix=[0.12456     0.03762     0.03762| 0.03762     0.12456     0.03762| 0.03762     0.03762     0.12456|] Xmatrix=[ 0.6121     0.23447     0.23447| 0.23447      0.6121     0.23447| 0.23447     0.23447      0.6121|] Cmatrix=[0  0  0| 0  0  0| 0  0  0|]
New Line.03552503a_03552504 Phases=3 bus1=03552503a.1.2.3 bus2=03552504.1.2.3 Units=km Length=0.026518 Rmatrix=[0.64403     0.11385     0.11385| 0.11385     0.64403     0.11385| 0.11385     0.11385     0.64403|] Xmatrix=[0.78314     0.29823     0.29823| 0.29823     0.78314     0.29823| 0.29823     0.29823     0.78314|] Cmatrix=[0  0  0| 0  0  0| 0  0  0|]
New Line.03552504_03552509 Phases=1 bus1=03552504.1 bus2=03552509.1 Units=km Length=0.034747 Rmatrix=0.5935 Xmatrix=0.47277 Cmatrix=0
New Line.03552504_03552505 Phases=1 bus1=03552504.2 bus2=03552505.2 Units=km Length=0.075895 Rmatrix=0.5935 Xmatrix=0.47277 Cmatrix=0
New Line.03552504_03552507 Phases=1 bus1=03552504.3 bus2=03552507.3 Units=km Length=0.048463 Rmatrix=0.5935 Xmatrix=0.47277 Cmatrix=0
New Line.03552505_03552506 Phases=1 bus1=03552505.2 bus2=03552506.2 Units=km Length=0.064313 Rmatrix=0.5935 Xmatrix=0.47277 Cmatrix=0
New Line.03552507_03552508 Phases=1 bus1=03552507.3 bus2=03552508.3 Units=km Length=0.039319 Rmatrix=0.5935 Xmatrix=0.47277 Cmatrix=0
New Line.03552513_03552514 Phases=3 bus1=03552513.1.2.3 bus2=03552514.1.2.3 Units=km Length=0.03807 Rmatrix=[ 0.25131    0.062992    0.062992| 0.062992     0.25131    0.062992| 0.062992    0.062992     0.25131|] Xmatrix=[0.65223     0.24672     0.24672| 0.24672     0.65223     0.24672| 0.24672     0.24672     0.65223|] Cmatrix=[0  0  0| 0  0  0| 0  0  0|]
New Line.03552510a_03552511 Phases=3 bus1=03552510a.1.2.3 bus2=03552511.1.2.3 Units=km Length=0.084125 Rmatrix=[ 1.1475     0.13703     0.13703| 0.13703      1.1475     0.13703| 0.13703     0.13703      1.1475|] Xmatrix=[0.87981     0.35619     0.35619| 0.35619     0.87981     0.35619| 0.35619     0.35619     0.87981|] Cmatrix=[0  0  0| 0  0  0| 0  0  0|]
New Line.03552511_03552511a Phases=3 bus1=03552511.1.2.3 bus2=03552511a.1.2.3 Units=km Length=0.003048 Rmatrix=[0.12456     0.03762     0.03762| 0.03762     0.12456     0.03762| 0.03762     0.03762     0.12456|] Xmatrix=[ 0.6121     0.23447     0.23447| 0.23447      0.6121     0.23447| 0.23447     0.23447      0.6121|] Cmatrix=[0  0  0| 0  0  0| 0  0  0|]
New Line.03552511a_03552512 Phases=3 bus1=03552511a.1.2.3 bus2=03552512.1.2.3 Units=km Length=0.080467 Rmatrix=[0.64403     0.11385     0.11385| 0.11385     0.64403     0.11385| 0.11385     0.11385     0.64403|] Xmatrix=[0.78314     0.29823     0.29823| 0.29823     0.78314     0.29823| 0.29823     0.29823     0.78314|] Cmatrix=[0  0  0| 0  0  0| 0  0  0|]
New Line.03552514_03552545 Phases=3 bus1=03552514.1.2.3 bus2=03552545.1.2.3 Units=km Length=0.11043 Rmatrix=[ 0.25131    0.062992    0.062992| 0.062992     0.25131    0.062992| 0.062992    0.062992     0.25131|] Xmatrix=[0.65223     0.24672     0.24672| 0.24672     0.65223     0.24672| 0.24672     0.24672     0.65223|] Cmatrix=[0  0  0| 0  0  0| 0  0  0|]
New Line.03552514_03552514a Phases=3 bus1=03552514.1.2.3 bus2=03552514a.1.2.3 Units=km Length=0.003048 Rmatrix=[0.12456     0.03762     0.03762| 0.03762     0.12456     0.03762| 0.03762     0.03762     0.12456|] Xmatrix=[ 0.6121     0.23447     0.23447| 0.23447      0.6121     0.23447| 0.23447     0.23447      0.6121|] Cmatrix=[0  0  0| 0  0  0| 0  0  0|]
New Line.03552545_03552546 Phases=3 bus1=03552545.1.2.3 bus2=03552546.1.2.3 Units=km Length=0.04511 Rmatrix=[ 0.25131    0.062992    0.062992| 0.062992     0.25131    0.062992| 0.062992    0.062992     0.25131|] Xmatrix=[0.65223     0.24672     0.24672| 0.24672     0.65223     0.24672| 0.24672     0.24672     0.65223|] Cmatrix=[0  0  0| 0  0  0| 0  0  0|]
New Line.03552514a_03552515 Phases=3 bus1=03552514a.1.2.3 bus2=03552515.1.2.3 Units=km Length=0.051816 Rmatrix=[0.64403     0.11385     0.11385| 0.11385     0.64403     0.11385| 0.11385     0.11385     0.64403|] Xmatrix=[0.78314     0.29823     0.29823| 0.29823     0.78314     0.29823| 0.29823     0.29823     0.78314|] Cmatrix=[0  0  0| 0  0  0| 0  0  0|]
New Line.03552515_03552518 Phases=2 bus1=03552515.1.2 bus2=03552518.1.2 Units=km Length=0.094488 Rmatrix=[1.0822       0.139|  0.139      1.0822|] Xmatrix=[0.83869     0.34853| 0.34853     0.83869|] Cmatrix=[0  0| 0  0|]
New Line.03552515_03552532 Phases=3 bus1=03552515.1.2.3 bus2=03552532.1.2.3 Units=km Length=0.067361 Rmatrix=[0.71544     0.12194     0.12194| 0.12194     0.71544     0.12194| 0.12194     0.12194     0.71544|] Xmatrix=[  0.778     0.30523     0.30523| 0.30523       0.778     0.30523| 0.30523     0.30523       0.778|] Cmatrix=[0  0  0| 0  0  0| 0  0  0|]
New Line.03552515_03552516 Phases=1 bus1=03552515.3 bus2=03552516.3 Units=km Length=0.10058 Rmatrix=0.5935 Xmatrix=0.47277 Cmatrix=0
New Line.03552515_03552517 Phases=1 bus1=03552515.3 bus2=03552517.3 Units=km Length=0.021946 Rmatrix=0.5935 Xmatrix=0.47277 Cmatrix=0
New Line.03552518_03552522 Phases=2 bus1=03552518.1.2 bus2=03552522.1.2 Units=km Length=0.060046 Rmatrix=[1.0822       0.139|  0.139      1.0822|] Xmatrix=[0.83869     0.34853| 0.34853     0.83869|] Cmatrix=[0  0| 0  0|]
New Line.03552518_03552519 Phases=1 bus1=03552518.2 bus2=03552519.2 Units=km Length=0.051206 Rmatrix=0.94324 Xmatrix=0.49016 Cmatrix=0
New Line.03552532_03552533 Phases=3 bus1=03552532.1.2.3 bus2=03552533.1.2.3 Units=km Length=0.13381 Rmatrix=[0.64403     0.11385     0.11385| 0.11385     0.64403     0.11385| 0.11385     0.11385     0.64403|] Xmatrix=[0.78314     0.29823     0.29823| 0.29823     0.78314     0.29823| 0.29823     0.29823     0.78314|] Cmatrix=[0  0  0| 0  0  0| 0  0  0|]
New Line.03552532_03552537 Phases=1 bus1=03552532.2 bus2=03552537.2 Units=km Length=0.01585 Rmatrix=0.53018 Xmatrix=0.48491 Cmatrix=0
New Line.03552532_03552541 Phases=1 bus1=03552532.3 bus2=03552541.3 Units=km Length=0.024079 Rmatrix=0.53018 Xmatrix=0.48491 Cmatrix=0
New Line.03552519_03552520 Phases=1 bus1=03552519.2 bus2=03552520.2 Units=km Length=0.071933 Rmatrix=0.94324 Xmatrix=0.49016 Cmatrix=0
New Line.03552522_03552524 Phases=1 bus1=03552522.1 bus2=03552524.1 Units=km Length=0.055169 Rmatrix=0.5935 Xmatrix=0.47277 Cmatrix=0
New Line.03552522_03552523 Phases=1 bus1=03552522.2 bus2=03552523.2 Units=km Length=0.13198 Rmatrix=0.5935 Xmatrix=0.47277 Cmatrix=0
New Line.03552520_03552521 Phases=1 bus1=03552520.2 bus2=03552521.2 Units=km Length=0.046939 Rmatrix=0.94324 Xmatrix=0.49016 Cmatrix=0
New Line.03552524_03552525 Phases=1 bus1=03552524.1 bus2=03552525.1 Units=km Length=0.039624 Rmatrix=0.94324 Xmatrix=0.49016 Cmatrix=0
New Line.03552525_03552526 Phases=1 bus1=03552525.1 bus2=03552526.1 Units=km Length=0.078638 Rmatrix=0.53018 Xmatrix=0.48491 Cmatrix=0
New Line.03552525_03552530 Phases=1 bus1=03552525.1 bus2=03552530.1 Units=km Length=0.06157 Rmatrix=0.5935 Xmatrix=0.47277 Cmatrix=0
New Line.03552526_03552527 Phases=1 bus1=03552526.1 bus2=03552527.1 Units=km Length=0.059131 Rmatrix=0.94324 Xmatrix=0.49016 Cmatrix=0
New Line.03552530_03552531 Phases=1 bus1=03552530.1 bus2=03552531.1 Units=km Length=0.026822 Rmatrix=0.5935 Xmatrix=0.47277 Cmatrix=0
New Line.03552527_03552528 Phases=1 bus1=03552527.1 bus2=03552528.1 Units=km Length=0.095707 Rmatrix=0.5935 Xmatrix=0.47277 Cmatrix=0
New Line.03552528_03552529 Phases=1 bus1=03552528.1 bus2=03552529.1 Units=km Length=0.13777 Rmatrix=0.5935 Xmatrix=0.47277 Cmatrix=0
New Line.03552533_03552534 Phases=1 bus1=03552533.1 bus2=03552534.1 Units=km Length=0.03871 Rmatrix=0.53018 Xmatrix=0.48491 Cmatrix=0
New Line.03552537_03552537a Phases=1 bus1=03552537.2 bus2=03552537a.2 Units=km Length=0.003048 Rmatrix=0.086942 Xmatrix=0.37762 Cmatrix=0
New Line.03552541_03552541a Phases=1 bus1=03552541.3 bus2=03552541a.3 Units=km Length=0.003048 Rmatrix=0.086942 Xmatrix=0.37762 Cmatrix=0
New Line.03552534_03552534a Phases=1 bus1=03552534.1 bus2=03552534a.1 Units=km Length=0.003048 Rmatrix=0.086942 Xmatrix=0.37762 Cmatrix=0
New Line.03552534a_03552535 Phases=1 bus1=03552534a.1 bus2=03552535.1 Units=km Length=0.029566 Rmatrix=0.53018 Xmatrix=0.48491 Cmatrix=0
New Line.03552535_03552536 Phases=1 bus1=03552535.1 bus2=03552536.1 Units=km Length=0.081382 Rmatrix=0.53018 Xmatrix=0.48491 Cmatrix=0
New Line.03552537a_03552538 Phases=1 bus1=03552537a.2 bus2=03552538.2 Units=km Length=0.074371 Rmatrix=0.53018 Xmatrix=0.48491 Cmatrix=0
New Line.03552537a_03552540 Phases=1 bus1=03552537a.2 bus2=03552540.2 Units=km Length=0.10119 Rmatrix=0.53018 Xmatrix=0.48491 Cmatrix=0
New Line.03552538_03552539 Phases=1 bus1=03552538.2 bus2=03552539.2 Units=km Length=0.099365 Rmatrix=0.53018 Xmatrix=0.48491 Cmatrix=0
New Line.03552541a_03552542 Phases=1 bus1=03552541a.3 bus2=03552542.3 Units=km Length=0.036881 Rmatrix=0.53018 Xmatrix=0.48491 Cmatrix=0
New Line.03552542_03552543 Phases=1 bus1=03552542.3 bus2=03552543.3 Units=km Length=0.086563 Rmatrix=0.53018 Xmatrix=0.48491 Cmatrix=0
New Line.03552543_03552544 Phases=1 bus1=03552543.3 bus2=03552544.3 Units=km Length=0.065837 Rmatrix=0.53018 Xmatrix=0.48491 Cmatrix=0
New Line.03552546_03552547 Phases=3 bus1=03552546.1.2.3 bus2=03552547.1.2.3 Units=km Length=0.026457 Rmatrix=[ 0.25131    0.062992    0.062992| 0.062992     0.25131    0.062992| 0.062992    0.062992     0.25131|] Xmatrix=[0.65223     0.24672     0.24672| 0.24672     0.65223     0.24672| 0.24672     0.24672     0.65223|] Cmatrix=[0  0  0| 0  0  0| 0  0  0|]
New Line.03552547_03552553 Phases=3 bus1=03552547.1.2.3 bus2=03552553.1.2.3 Units=km Length=0.0851 Rmatrix=[ 0.25131    0.062992    0.062992| 0.062992     0.25131    0.062992| 0.062992    0.062992     0.25131|] Xmatrix=[0.65223     0.24672     0.24672| 0.24672     0.65223     0.24672| 0.24672     0.24672     0.65223|] Cmatrix=[0  0  0| 0  0  0| 0  0  0|]
New Line.03552547_03552547a Phases=1 bus1=03552547.3 bus2=03552547a.3 Units=km Length=0.003048 Rmatrix=0.086942 Xmatrix=0.37762 Cmatrix=0
New Line.03552553_03552571 Phases=3 bus1=03552553.1.2.3 bus2=03552571.1.2.3 Units=km Length=0.059741 Rmatrix=[ 0.25131    0.062992    0.062992| 0.062992     0.25131    0.062992| 0.062992    0.062992     0.25131|] Xmatrix=[0.65223     0.24672     0.24672| 0.24672     0.65223     0.24672| 0.24672     0.24672     0.65223|] Cmatrix=[0  0  0| 0  0  0| 0  0  0|]
New Line.03552553_03552553a Phases=2 bus1=03552553.2.3 bus2=03552553a.2.3 Units=km Length=0.003048 Rmatrix=[0.12456     0.03762| 0.03762     0.12456|] Xmatrix=[ 0.6121     0.23447| 0.23447      0.6121|] Cmatrix=[0  0| 0  0|]
New Line.03552547a_03552548 Phases=1 bus1=03552547a.3 bus2=03552548.3 Units=km Length=0.02286 Rmatrix=0.53018 Xmatrix=0.48491 Cmatrix=0
New Line.03552548_03552549 Phases=1 bus1=03552548.3 bus2=03552549.3 Units=km Length=0.082296 Rmatrix=0.53018 Xmatrix=0.48491 Cmatrix=0
New Line.03552549_03552550 Phases=1 bus1=03552549.3 bus2=03552550.3 Units=km Length=0.033528 Rmatrix=0.53018 Xmatrix=0.48491 Cmatrix=0
New Line.03552549_03552551 Phases=1 bus1=03552549.3 bus2=03552551.3 Units=km Length=0.03109 Rmatrix=0.53018 Xmatrix=0.48491 Cmatrix=0
New Line.03552551_03552552 Phases=1 bus1=03552551.3 bus2=03552552.3 Units=km Length=0.024689 Rmatrix=0.53018 Xmatrix=0.48491 Cmatrix=0
New Line.03552571_03552573 Phases=3 bus1=03552571.1.2.3 bus2=03552573.1.2.3 Units=km Length=0.069098 Rmatrix=[ 0.25131    0.062992    0.062992| 0.062992     0.25131    0.062992| 0.062992    0.062992     0.25131|] Xmatrix=[0.65223     0.24672     0.24672| 0.24672     0.65223     0.24672| 0.24672     0.24672     0.65223|] Cmatrix=[0  0  0| 0  0  0| 0  0  0|]
New Line.03552571_03552571a Phases=2 bus1=03552571.2.3 bus2=03552571a.2.3 Units=km Length=0.003048 Rmatrix=[0.12456     0.03762| 0.03762     0.12456|] Xmatrix=[ 0.6121     0.23447| 0.23447      0.6121|] Cmatrix=[0  0| 0  0|]
New Line.03552553a_03552554 Phases=2 bus1=03552553a.2.3 bus2=03552554.2.3 Units=km Length=0.069799 Rmatrix=[ 1.6358     0.13845| 0.13845      1.6358|] Xmatrix=[0.90256     0.39469| 0.39469     0.90256|] Cmatrix=[0  0| 0  0|]
New Line.03552554_03552555 Phases=2 bus1=03552554.2.3 bus2=03552555.2.3 Units=km Length=0.060655 Rmatrix=[ 1.6358     0.13845| 0.13845      1.6358|] Xmatrix=[0.90256     0.39469| 0.39469     0.90256|] Cmatrix=[0  0| 0  0|]
New Line.03552555_03552561 Phases=2 bus1=03552555.2.3 bus2=03552561.2.3 Units=km Length=0.072542 Rmatrix=[ 1.6358     0.13845| 0.13845      1.6358|] Xmatrix=[0.90256     0.39469| 0.39469     0.90256|] Cmatrix=[0  0| 0  0|]
New Line.03552555_03552569 Phases=2 bus1=03552555.2.3 bus2=03552569.2.3 Units=km Length=0.025146 Rmatrix=[ 1.6358     0.13845| 0.13845      1.6358|] Xmatrix=[0.90256     0.39469| 0.39469     0.90256|] Cmatrix=[0  0| 0  0|]
New Line.03552555_03552555a Phases=1 bus1=03552555.2 bus2=03552555a.2 Units=km Length=0.003048 Rmatrix=0.086942 Xmatrix=0.37762 Cmatrix=0
New Line.03552561_03552562 Phases=2 bus1=03552561.2.3 bus2=03552562.2.3 Units=km Length=0.044196 Rmatrix=[ 1.6358     0.13845| 0.13845      1.6358|] Xmatrix=[0.90256     0.39469| 0.39469     0.90256|] Cmatrix=[0  0| 0  0|]
New Line.03552569_03552570 Phases=2 bus1=03552569.2.3 bus2=03552570.2.3 Units=km Length=0.003048 Rmatrix=[ 1.6358     0.13845| 0.13845      1.6358|] Xmatrix=[0.90256     0.39469| 0.39469     0.90256|] Cmatrix=[0  0| 0  0|]
New Line.03552555a_03552556 Phases=1 bus1=03552555a.2 bus2=03552556.2 Units=km Length=0.062179 Rmatrix=0.5935 Xmatrix=0.47277 Cmatrix=0
New Line.03552556_03552557 Phases=1 bus1=03552556.2 bus2=03552557.2 Units=km Length=0.078029 Rmatrix=0.5935 Xmatrix=0.47277 Cmatrix=0
New Line.03552557_03552558 Phases=1 bus1=03552557.2 bus2=03552558.2 Units=km Length=0.05395 Rmatrix=0.5935 Xmatrix=0.47277 Cmatrix=0
New Line.03552558_03552559 Phases=1 bus1=03552558.2 bus2=03552559.2 Units=km Length=0.063094 Rmatrix=0.5935 Xmatrix=0.47277 Cmatrix=0
New Line.03552559_03552560 Phases=1 bus1=03552559.2 bus2=03552560.2 Units=km Length=0.074981 Rmatrix=0.5935 Xmatrix=0.47277 Cmatrix=0
New Line.03552562_03552563 Phases=2 bus1=03552562.2.3 bus2=03552563.2.3 Units=km Length=0.025298 Rmatrix=[ 1.6358     0.13845| 0.13845      1.6358|] Xmatrix=[0.90256     0.39469| 0.39469     0.90256|] Cmatrix=[0  0| 0  0|]
New Line.03552563_03552564 Phases=2 bus1=03552563.2.3 bus2=03552564.2.3 Units=km Length=0.067666 Rmatrix=[ 1.6358     0.13845| 0.13845      1.6358|] Xmatrix=[0.90256     0.39469| 0.39469     0.90256|] Cmatrix=[0  0| 0  0|]
New Line.03552564_03552565 Phases=2 bus1=03552564.2.3 bus2=03552565.2.3 Units=km Length=0.069433 Rmatrix=[ 1.6358     0.13845| 0.13845      1.6358|] Xmatrix=[0.90256     0.39469| 0.39469     0.90256|] Cmatrix=[0  0| 0  0|]
New Line.03552565_03552566 Phases=2 bus1=03552565.2.3 bus2=03552566.2.3 Units=km Length=0.096622 Rmatrix=[ 1.6358     0.13845| 0.13845      1.6358|] Xmatrix=[0.90256     0.39469| 0.39469     0.90256|] Cmatrix=[0  0| 0  0|]
New Line.03552566_03552567 Phases=2 bus1=03552566.2.3 bus2=03552567.2.3 Units=km Length=0.038161 Rmatrix=[ 1.6358     0.13845| 0.13845      1.6358|] Xmatrix=[0.90256     0.39469| 0.39469     0.90256|] Cmatrix=[0  0| 0  0|]
New Line.03552567_03552568 Phases=2 bus1=03552567.2.3 bus2=03552568.2.3 Units=km Length=0.064496 Rmatrix=[ 1.6358     0.13845| 0.13845      1.6358|] Xmatrix=[0.90256     0.39469| 0.39469     0.90256|] Cmatrix=[0  0| 0  0|]
New Line.03552573_03552574 Phases=3 bus1=03552573.1.2.3 bus2=03552574.1.2.3 Units=km Length=0.031821 Rmatrix=[ 0.25131    0.062992    0.062992| 0.062992     0.25131    0.062992| 0.062992    0.062992     0.25131|] Xmatrix=[0.65223     0.24672     0.24672| 0.24672     0.65223     0.24672| 0.24672     0.24672     0.65223|] Cmatrix=[0  0  0| 0  0  0| 0  0  0|]
New Line.03552571a_03552572 Phases=2 bus1=03552571a.2.3 bus2=03552572.2.3 Units=km Length=0.06861 Rmatrix=[ 1.1475     0.13703| 0.13703      1.1475|] Xmatrix=[0.87981     0.35619| 0.35619     0.87981|] Cmatrix=[0  0| 0  0|]
New Line.03552574_03552575 Phases=3 bus1=03552574.1.2.3 bus2=03552575.1.2.3 Units=km Length=0.079035 Rmatrix=[ 0.25131    0.062992    0.062992| 0.062992     0.25131    0.062992| 0.062992    0.062992     0.25131|] Xmatrix=[0.65223     0.24672     0.24672| 0.24672     0.65223     0.24672| 0.24672     0.24672     0.65223|] Cmatrix=[0  0  0| 0  0  0| 0  0  0|]
New Line.03552575_03552576 Phases=3 bus1=03552575.1.2.3 bus2=03552576.1.2.3 Units=km Length=0.028164 Rmatrix=[ 0.25131    0.062992    0.062992| 0.062992     0.25131    0.062992| 0.062992    0.062992     0.25131|] Xmatrix=[0.65223     0.24672     0.24672| 0.24672     0.65223     0.24672| 0.24672     0.24672     0.65223|] Cmatrix=[0  0  0| 0  0  0| 0  0  0|]
New Line.03552576_03552577 Phases=3 bus1=03552576.1.2.3 bus2=03552577.1.2.3 Units=km Length=0.045415 Rmatrix=[ 0.25131    0.062992    0.062992| 0.062992     0.25131    0.062992| 0.062992    0.062992     0.25131|] Xmatrix=[0.65223     0.24672     0.24672| 0.24672     0.65223     0.24672| 0.24672     0.24672     0.65223|] Cmatrix=[0  0  0| 0  0  0| 0  0  0|]
New Line.03552576_03552631 Phases=2 bus1=03552576.1.2 bus2=03552631.1.2 Units=km Length=0.0082906 Rmatrix=[1.0822       0.139|  0.139      1.0822|] Xmatrix=[0.83869     0.34853| 0.34853     0.83869|] Cmatrix=[0  0| 0  0|]
New Line.03552577_03552578 Phases=3 bus1=03552577.1.2.3 bus2=03552578.1.2.3 Units=km Length=0.04188 Rmatrix=[ 0.25131    0.062992    0.062992| 0.062992     0.25131    0.062992| 0.062992    0.062992     0.25131|] Xmatrix=[0.65223     0.24672     0.24672| 0.24672     0.65223     0.24672| 0.24672     0.24672     0.65223|] Cmatrix=[0  0  0| 0  0  0| 0  0  0|]
New Line.03552631_03552631a Phases=2 bus1=03552631.1.2 bus2=03552631a.1.2 Units=km Length=0.003048 Rmatrix=[0.12456     0.03762| 0.03762     0.12456|] Xmatrix=[ 0.6121     0.23447| 0.23447      0.6121|] Cmatrix=[0  0| 0  0|]
New Line.03552578_03552579 Phases=3 bus1=03552578.1.2.3 bus2=03552579.1.2.3 Units=km Length=0.015545 Rmatrix=[ 0.25131    0.062992    0.062992| 0.062992     0.25131    0.062992| 0.062992    0.062992     0.25131|] Xmatrix=[0.65223     0.24672     0.24672| 0.24672     0.65223     0.24672| 0.24672     0.24672     0.65223|] Cmatrix=[0  0  0| 0  0  0| 0  0  0|]
New Line.03552578_03552578a Phases=3 bus1=03552578.1.2.3 bus2=03552578a.1.2.3 Units=km Length=0.003048 Rmatrix=[0.12456     0.03762     0.03762| 0.03762     0.12456     0.03762| 0.03762     0.03762     0.12456|] Xmatrix=[ 0.6121     0.23447     0.23447| 0.23447      0.6121     0.23447| 0.23447     0.23447      0.6121|] Cmatrix=[0  0  0| 0  0  0| 0  0  0|]
New Line.03552579_03552579a Phases=3 bus1=03552579.1.2.3 bus2=03552579a.1.2.3 Units=km Length=0.003048 Rmatrix=[0.12456     0.03762     0.03762| 0.03762     0.12456     0.03762| 0.03762     0.03762     0.12456|] Xmatrix=[ 0.6121     0.23447     0.23447| 0.23447      0.6121     0.23447| 0.23447     0.23447      0.6121|] Cmatrix=[0  0  0| 0  0  0| 0  0  0|]
New Line.03552578a_03552629 Phases=3 bus1=03552578a.1.2.3 bus2=03552629.1.2.3 Units=km Length=0.072542 Rmatrix=[0.71544     0.12194     0.12194| 0.12194     0.71544     0.12194| 0.12194     0.12194     0.71544|] Xmatrix=[  0.778     0.30523     0.30523| 0.30523       0.778     0.30523| 0.30523     0.30523       0.778|] Cmatrix=[0  0  0| 0  0  0| 0  0  0|]
New Line.03552629_03552630 Phases=3 bus1=03552629.1.2.3 bus2=03552630.1.2.3 Units=km Length=0.055778 Rmatrix=[0.71544     0.12194     0.12194| 0.12194     0.71544     0.12194| 0.12194     0.12194     0.71544|] Xmatrix=[  0.778     0.30523     0.30523| 0.30523       0.778     0.30523| 0.30523     0.30523       0.778|] Cmatrix=[0  0  0| 0  0  0| 0  0  0|]
New Line.03552579a_03552580 Phases=3 bus1=03552579a.1.2.3 bus2=03552580.1.2.3 Units=km Length=0.017374 Rmatrix=[ 0.25131    0.062992    0.062992| 0.062992     0.25131    0.062992| 0.062992    0.062992     0.25131|] Xmatrix=[0.65223     0.24672     0.24672| 0.24672     0.65223     0.24672| 0.24672     0.24672     0.65223|] Cmatrix=[0  0  0| 0  0  0| 0  0  0|]
New Line.03552580_03552580a Phases=3 bus1=03552580.1.2.3 bus2=03552580a.1.2.3 Units=km Length=0.003048 Rmatrix=[0.12456     0.03762     0.03762| 0.03762     0.12456     0.03762| 0.03762     0.03762     0.12456|] Xmatrix=[ 0.6121     0.23447     0.23447| 0.23447      0.6121     0.23447| 0.23447     0.23447      0.6121|] Cmatrix=[0  0  0| 0  0  0| 0  0  0|]
New Line.03552580a_03552581 Phases=3 bus1=03552580a.1.2.3 bus2=03552581.1.2.3 Units=km Length=0.06858 Rmatrix=[0.12456     0.03762     0.03762| 0.03762     0.12456     0.03762| 0.03762     0.03762     0.12456|] Xmatrix=[ 0.6121     0.23447     0.23447| 0.23447      0.6121     0.23447| 0.23447     0.23447      0.6121|] Cmatrix=[0  0  0| 0  0  0| 0  0  0|]
New Line.03552581_03552582 Phases=3 bus1=03552581.1.2.3 bus2=03552582.1.2.3 Units=km Length=0.085039 Rmatrix=[0.12456     0.03762     0.03762| 0.03762     0.12456     0.03762| 0.03762     0.03762     0.12456|] Xmatrix=[ 0.6121     0.23447     0.23447| 0.23447      0.6121     0.23447| 0.23447     0.23447      0.6121|] Cmatrix=[0  0  0| 0  0  0| 0  0  0|]
New Line.03552581_03552583 Phases=3 bus1=03552581.1.2.3 bus2=03552583.1.2.3 Units=km Length=0.11034 Rmatrix=[0.64403     0.11385     0.11385| 0.11385     0.64403     0.11385| 0.11385     0.11385     0.64403|] Xmatrix=[0.78314     0.29823     0.29823| 0.29823     0.78314     0.29823| 0.29823     0.29823     0.78314|] Cmatrix=[0  0  0| 0  0  0| 0  0  0|]
New Line.03552583_03552584 Phases=3 bus1=03552583.1.2.3 bus2=03552584.1.2.3 Units=km Length=0.017678 Rmatrix=[0.64403     0.11385     0.11385| 0.11385     0.64403     0.11385| 0.11385     0.11385     0.64403|] Xmatrix=[0.78314     0.29823     0.29823| 0.29823     0.78314     0.29823| 0.29823     0.29823     0.78314|] Cmatrix=[0  0  0| 0  0  0| 0  0  0|]
New Line.03552584_03552584a Phases=3 bus1=03552584.1.2.3 bus2=03552584a.1.2.3 Units=km Length=0.003048 Rmatrix=[0.12456     0.03762     0.03762| 0.03762     0.12456     0.03762| 0.03762     0.03762     0.12456|] Xmatrix=[ 0.6121     0.23447     0.23447| 0.23447      0.6121     0.23447| 0.23447     0.23447      0.6121|] Cmatrix=[0  0  0| 0  0  0| 0  0  0|]
New Line.03552584a_03552585 Phases=3 bus1=03552584a.1.2.3 bus2=03552585.1.2.3 Units=km Length=0.012802 Rmatrix=[0.64403     0.11385     0.11385| 0.11385     0.64403     0.11385| 0.11385     0.11385     0.64403|] Xmatrix=[0.78314     0.29823     0.29823| 0.29823     0.78314     0.29823| 0.29823     0.29823     0.78314|] Cmatrix=[0  0  0| 0  0  0| 0  0  0|]
New Line.03552585_03552586 Phases=3 bus1=03552585.1.2.3 bus2=03552586.1.2.3 Units=km Length=0.026822 Rmatrix=[0.64403     0.11385     0.11385| 0.11385     0.64403     0.11385| 0.11385     0.11385     0.64403|] Xmatrix=[0.78314     0.29823     0.29823| 0.29823     0.78314     0.29823| 0.29823     0.29823     0.78314|] Cmatrix=[0  0  0| 0  0  0| 0  0  0|]
New Line.03552585_03552598 Phases=3 bus1=03552585.1.2.3 bus2=03552598.1.2.3 Units=km Length=0.026822 Rmatrix=[0.64403     0.11385     0.11385| 0.11385     0.64403     0.11385| 0.11385     0.11385     0.64403|] Xmatrix=[0.78314     0.29823     0.29823| 0.29823     0.78314     0.29823| 0.29823     0.29823     0.78314|] Cmatrix=[0  0  0| 0  0  0| 0  0  0|]
New Line.03552585_03552623 Phases=1 bus1=03552585.1 bus2=03552623.1 Units=km Length=0.026822 Rmatrix=0.5935 Xmatrix=0.47277 Cmatrix=0
New Line.03552585_03552622 Phases=1 bus1=03552585.3 bus2=03552622.3 Units=km Length=0.041453 Rmatrix=0.5935 Xmatrix=0.47277 Cmatrix=0
New Line.03552586_03552587 Phases=3 bus1=03552586.1.2.3 bus2=03552587.1.2.3 Units=km Length=0.06919 Rmatrix=[0.64403     0.11385     0.11385| 0.11385     0.64403     0.11385| 0.11385     0.11385     0.64403|] Xmatrix=[0.78314     0.29823     0.29823| 0.29823     0.78314     0.29823| 0.29823     0.29823     0.78314|] Cmatrix=[0  0  0| 0  0  0| 0  0  0|]
New Line.03552598_03552599 Phases=3 bus1=03552598.1.2.3 bus2=03552599.1.2.3 Units=km Length=0.11582 Rmatrix=[0.64403     0.11385     0.11385| 0.11385     0.64403     0.11385| 0.11385     0.11385     0.64403|] Xmatrix=[0.78314     0.29823     0.29823| 0.29823     0.78314     0.29823| 0.29823     0.29823     0.78314|] Cmatrix=[0  0  0| 0  0  0| 0  0  0|]
New Line.03552623_03552624 Phases=1 bus1=03552623.1 bus2=03552624.1 Units=km Length=0.017678 Rmatrix=0.5935 Xmatrix=0.47277 Cmatrix=0
New Line.03552587_03552588 Phases=3 bus1=03552587.1.2.3 bus2=03552588.1.2.3 Units=km Length=0.039014 Rmatrix=[0.64403     0.11385     0.11385| 0.11385     0.64403     0.11385| 0.11385     0.11385     0.64403|] Xmatrix=[0.78314     0.29823     0.29823| 0.29823     0.78314     0.29823| 0.29823     0.29823     0.78314|] Cmatrix=[0  0  0| 0  0  0| 0  0  0|]
New Line.03552587_03552589 Phases=3 bus1=03552587.1.2.3 bus2=03552589.1.2.3 Units=km Length=0.077114 Rmatrix=[0.64403     0.11385     0.11385| 0.11385     0.64403     0.11385| 0.11385     0.11385     0.64403|] Xmatrix=[0.78314     0.29823     0.29823| 0.29823     0.78314     0.29823| 0.29823     0.29823     0.78314|] Cmatrix=[0  0  0| 0  0  0| 0  0  0|]
New Line.03552589_03552590 Phases=3 bus1=03552589.1.2.3 bus2=03552590.1.2.3 Units=km Length=0.091745 Rmatrix=[0.64403     0.11385     0.11385| 0.11385     0.64403     0.11385| 0.11385     0.11385     0.64403|] Xmatrix=[0.78314     0.29823     0.29823| 0.29823     0.78314     0.29823| 0.29823     0.29823     0.78314|] Cmatrix=[0  0  0| 0  0  0| 0  0  0|]
New Line.03552589_03552593 Phases=3 bus1=03552589.1.2.3 bus2=03552593.1.2.3 Units=km Length=0.029566 Rmatrix=[0.64403     0.11385     0.11385| 0.11385     0.64403     0.11385| 0.11385     0.11385     0.64403|] Xmatrix=[0.78314     0.29823     0.29823| 0.29823     0.78314     0.29823| 0.29823     0.29823     0.78314|] Cmatrix=[0  0  0| 0  0  0| 0  0  0|]
New Line.03552589_03552594 Phases=3 bus1=03552589.1.2.3 bus2=03552594.1.2.3 Units=km Length=0.015545 Rmatrix=[0.64403     0.11385     0.11385| 0.11385     0.64403     0.11385| 0.11385     0.11385     0.64403|] Xmatrix=[0.78314     0.29823     0.29823| 0.29823     0.78314     0.29823| 0.29823     0.29823     0.78314|] Cmatrix=[0  0  0| 0  0  0| 0  0  0|]
New Line.03552589_03552595 Phases=1 bus1=03552589.3 bus2=03552595.3 Units=km Length=0.064618 Rmatrix=0.5935 Xmatrix=0.47277 Cmatrix=0
New Line.03552590_03552591 Phases=3 bus1=03552590.1.2.3 bus2=03552591.1.2.3 Units=km Length=0.066446 Rmatrix=[0.64403     0.11385     0.11385| 0.11385     0.64403     0.11385| 0.11385     0.11385     0.64403|] Xmatrix=[0.78314     0.29823     0.29823| 0.29823     0.78314     0.29823| 0.29823     0.29823     0.78314|] Cmatrix=[0  0  0| 0  0  0| 0  0  0|]
New Line.03552595_03552596 Phases=1 bus1=03552595.3 bus2=03552596.3 Units=km Length=0.013411 Rmatrix=0.5935 Xmatrix=0.47277 Cmatrix=0
New Line.03552595_03552597 Phases=1 bus1=03552595.3 bus2=03552597.3 Units=km Length=0.044501 Rmatrix=0.5935 Xmatrix=0.47277 Cmatrix=0
New Line.03552591_03552592 Phases=3 bus1=03552591.1.2.3 bus2=03552592.1.2.3 Units=km Length=0.072847 Rmatrix=[0.64403     0.11385     0.11385| 0.11385     0.64403     0.11385| 0.11385     0.11385     0.64403|] Xmatrix=[0.78314     0.29823     0.29823| 0.29823     0.78314     0.29823| 0.29823     0.29823     0.78314|] Cmatrix=[0  0  0| 0  0  0| 0  0  0|]
New Line.03552599_03552600 Phases=3 bus1=03552599.1.2.3 bus2=03552600.1.2.3 Units=km Length=0.13167 Rmatrix=[0.64403     0.11385     0.11385| 0.11385     0.64403     0.11385| 0.11385     0.11385     0.64403|] Xmatrix=[0.78314     0.29823     0.29823| 0.29823     0.78314     0.29823| 0.29823     0.29823     0.78314|] Cmatrix=[0  0  0| 0  0  0| 0  0  0|]
New Line.03552599_03552603 Phases=3 bus1=03552599.1.2.3 bus2=03552603.1.2.3 Units=km Length=0.034442 Rmatrix=[0.64403     0.11385     0.11385| 0.11385     0.64403     0.11385| 0.11385     0.11385     0.64403|] Xmatrix=[0.78314     0.29823     0.29823| 0.29823     0.78314     0.29823| 0.29823     0.29823     0.78314|] Cmatrix=[0  0  0| 0  0  0| 0  0  0|]
New Line.03552599_03552604 Phases=3 bus1=03552599.1.2.3 bus2=03552604.1.2.3 Units=km Length=0.18806 Rmatrix=[0.64403     0.11385     0.11385| 0.11385     0.64403     0.11385| 0.11385     0.11385     0.64403|] Xmatrix=[0.78314     0.29823     0.29823| 0.29823     0.78314     0.29823| 0.29823     0.29823     0.78314|] Cmatrix=[0  0  0| 0  0  0| 0  0  0|]
New Line.03552600_03552600a Phases=3 bus1=03552600.1.2.3 bus2=03552600a.1.2.3 Units=km Length=0.003048 Rmatrix=[0.12456     0.03762     0.03762| 0.03762     0.12456     0.03762| 0.03762     0.03762     0.12456|] Xmatrix=[ 0.6121     0.23447     0.23447| 0.23447      0.6121     0.23447| 0.23447     0.23447      0.6121|] Cmatrix=[0  0  0| 0  0  0| 0  0  0|]
New Line.03552604_03552605 Phases=2 bus1=03552604.1.3 bus2=03552605.1.3 Units=km Length=0.032309 Rmatrix=[0.71544     0.12194| 0.12194     0.71544|] Xmatrix=[  0.778     0.30523| 0.30523       0.778|] Cmatrix=[0  0| 0  0|]
New Line.03552604_03552607 Phases=3 bus1=03552604.1.2.3 bus2=03552607.1.2.3 Units=km Length=0.039319 Rmatrix=[0.71544     0.12194     0.12194| 0.12194     0.71544     0.12194| 0.12194     0.12194     0.71544|] Xmatrix=[  0.778     0.30523     0.30523| 0.30523       0.778     0.30523| 0.30523     0.30523       0.778|] Cmatrix=[0  0  0| 0  0  0| 0  0  0|]
New Line.03552604_03552608 Phases=3 bus1=03552604.1.2.3 bus2=03552608.1.2.3 Units=km Length=0.27798 Rmatrix=[0.64403     0.11385     0.11385| 0.11385     0.64403     0.11385| 0.11385     0.11385     0.64403|] Xmatrix=[0.78314     0.29823     0.29823| 0.29823     0.78314     0.29823| 0.29823     0.29823     0.78314|] Cmatrix=[0  0  0| 0  0  0| 0  0  0|]
New Line.035527_035527a Phases=3 bus1=035527.1.2.3 bus2=035527a.1.2.3 Units=km Length=0.003048 Rmatrix=[0.12456     0.03762     0.03762| 0.03762     0.12456     0.03762| 0.03762     0.03762     0.12456|] Xmatrix=[ 0.6121     0.23447     0.23447| 0.23447      0.6121     0.23447| 0.23447     0.23447      0.6121|] Cmatrix=[0  0  0| 0  0  0| 0  0  0|]
New Line.03552600a_03552602 Phases=3 bus1=03552600a.1.2.3 bus2=03552602.1.2.3 Units=km Length=0.034199 Rmatrix=[ 1.6358     0.13845     0.13845| 0.13845      1.6358     0.13845| 0.13845     0.13845      1.6358|] Xmatrix=[0.90256     0.39469     0.39469| 0.39469     0.90256     0.39469| 0.39469     0.39469     0.90256|] Cmatrix=[0  0  0| 0  0  0| 0  0  0|]
New Line.03552605_03552605a Phases=2 bus1=03552605.1.3 bus2=03552605a.1.3 Units=km Length=0.003048 Rmatrix=[0.12456     0.03762| 0.03762     0.12456|] Xmatrix=[ 0.6121     0.23447| 0.23447      0.6121|] Cmatrix=[0  0| 0  0|]
New Line.03552608_03552609 Phases=3 bus1=03552608.1.2.3 bus2=03552609.1.2.3 Units=km Length=0.22159 Rmatrix=[0.71544     0.12194     0.12194| 0.12194     0.71544     0.12194| 0.12194     0.12194     0.71544|] Xmatrix=[  0.778     0.30523     0.30523| 0.30523       0.778     0.30523| 0.30523     0.30523       0.778|] Cmatrix=[0  0  0| 0  0  0| 0  0  0|]
New Line.03552608_03552619 Phases=1 bus1=03552608.2 bus2=03552619.2 Units=km Length=0.12649 Rmatrix=0.5935 Xmatrix=0.47277 Cmatrix=0
New Line.03552605a_03552606 Phases=2 bus1=03552605a.1.3 bus2=03552606.1.3 Units=km Length=0.033863 Rmatrix=[ 1.6358     0.13845| 0.13845      1.6358|] Xmatrix=[0.90256     0.39469| 0.39469     0.90256|] Cmatrix=[0  0| 0  0|]
New Line.03552609_03552610 Phases=3 bus1=03552609.1.2.3 bus2=03552610.1.2.3 Units=km Length=0.20361 Rmatrix=[0.71544     0.12194     0.12194| 0.12194     0.71544     0.12194| 0.12194     0.12194     0.71544|] Xmatrix=[  0.778     0.30523     0.30523| 0.30523       0.778     0.30523| 0.30523     0.30523       0.778|] Cmatrix=[0  0  0| 0  0  0| 0  0  0|]
New Line.03552609_03552615 Phases=1 bus1=03552609.1 bus2=03552615.1 Units=km Length=0.02347 Rmatrix=0.5935 Xmatrix=0.47277 Cmatrix=0
New Line.03552609_03552617 Phases=1 bus1=03552609.3 bus2=03552617.3 Units=km Length=0.14051 Rmatrix=0.5935 Xmatrix=0.47277 Cmatrix=0
New Line.03552619_03552620 Phases=1 bus1=03552619.2 bus2=03552620.2 Units=km Length=0.14326 Rmatrix=0.5935 Xmatrix=0.47277 Cmatrix=0
New Line.03552610_03552612 Phases=1 bus1=03552610.2 bus2=03552612.2 Units=km Length=0.10516 Rmatrix=0.5935 Xmatrix=0.47277 Cmatrix=0
New Line.03552610_03552611 Phases=1 bus1=03552610.3 bus2=03552611.3 Units=km Length=0.021031 Rmatrix=0.5935 Xmatrix=0.47277 Cmatrix=0
New Line.03552615_03552616 Phases=1 bus1=03552615.1 bus2=03552616.1 Units=km Length=0.088087 Rmatrix=0.5935 Xmatrix=0.47277 Cmatrix=0
New Line.03552617_03552618 Phases=1 bus1=03552617.3 bus2=03552618.3 Units=km Length=0.088392 Rmatrix=0.5935 Xmatrix=0.47277 Cmatrix=0
New Line.03552612_03552613 Phases=1 bus1=03552612.2 bus2=03552613.2 Units=km Length=0.10455 Rmatrix=0.5935 Xmatrix=0.47277 Cmatrix=0
New Line.03552613_03552614 Phases=1 bus1=03552613.2 bus2=03552614.2 Units=km Length=0.070409 Rmatrix=0.5935 Xmatrix=0.47277 Cmatrix=0
New Line.03552620_03552621 Phases=1 bus1=03552620.2 bus2=03552621.2 Units=km Length=0.094488 Rmatrix=0.5935 Xmatrix=0.47277 Cmatrix=0
New Line.03552624_03552625 Phases=1 bus1=03552624.1 bus2=03552625.1 Units=km Length=0.093269 Rmatrix=0.5935 Xmatrix=0.47277 Cmatrix=0
New Line.03552625_03552626 Phases=1 bus1=03552625.1 bus2=03552626.1 Units=km Length=0.014021 Rmatrix=0.53018 Xmatrix=0.48491 Cmatrix=0
New Line.03552625_03552628 Phases=1 bus1=03552625.1 bus2=03552628.1 Units=km Length=0.089002 Rmatrix=0.53018 Xmatrix=0.48491 Cmatrix=0
New Line.03552626_03552627 Phases=1 bus1=03552626.1 bus2=03552627.1 Units=km Length=0.096317 Rmatrix=0.53018 Xmatrix=0.48491 Cmatrix=0
New Line.03552631a_03552632 Phases=2 bus1=03552631a.1.2 bus2=03552632.1.2 Units=km Length=0.055077 Rmatrix=[ 1.6358     0.13845| 0.13845      1.6358|] Xmatrix=[0.90256     0.39469| 0.39469     0.90256|] Cmatrix=[0  0| 0  0|]
New Line.03552631a_03552639 Phases=2 bus1=03552631a.1.2 bus2=03552639.1.2 Units=km Length=0.06221 Rmatrix=[ 1.6358     0.13845| 0.13845      1.6358|] Xmatrix=[0.90256     0.39469| 0.39469     0.90256|] Cmatrix=[0  0| 0  0|]
New Line.03552632_03552633 Phases=2 bus1=03552632.1.2 bus2=03552633.1.2 Units=km Length=0.035875 Rmatrix=[ 1.6358     0.13845| 0.13845      1.6358|] Xmatrix=[0.90256     0.39469| 0.39469     0.90256|] Cmatrix=[0  0| 0  0|]
New Line.03552639_03552641 Phases=2 bus1=03552639.1.2 bus2=03552641.1.2 Units=km Length=0.0381 Rmatrix=[ 1.6358     0.13845| 0.13845      1.6358|] Xmatrix=[0.90256     0.39469| 0.39469     0.90256|] Cmatrix=[0  0| 0  0|]
New Line.03552639_03552639a Phases=1 bus1=03552639.2 bus2=03552639a.2 Units=km Length=0.003048 Rmatrix=0.086942 Xmatrix=0.37762 Cmatrix=0
New Line.03552633_03552634 Phases=2 bus1=03552633.1.2 bus2=03552634.1.2 Units=km Length=0.12582 Rmatrix=[ 1.6358     0.13845| 0.13845      1.6358|] Xmatrix=[0.90256     0.39469| 0.39469     0.90256|] Cmatrix=[0  0| 0  0|]
New Line.03552634_03552635 Phases=2 bus1=03552634.1.2 bus2=03552635.1.2 Units=km Length=0.091745 Rmatrix=[ 1.1475     0.13703| 0.13703      1.1475|] Xmatrix=[0.87981     0.35619| 0.35619     0.87981|] Cmatrix=[0  0| 0  0|]
New Line.03552634_03552638 Phases=2 bus1=03552634.1.2 bus2=03552638.1.2 Units=km Length=0.040234 Rmatrix=[ 1.6358     0.13845| 0.13845      1.6358|] Xmatrix=[0.90256     0.39469| 0.39469     0.90256|] Cmatrix=[0  0| 0  0|]
New Line.03552635_03552635a Phases=2 bus1=03552635.1.2 bus2=03552635a.1.2 Units=km Length=0.003048 Rmatrix=[0.12456     0.03762| 0.03762     0.12456|] Xmatrix=[ 0.6121     0.23447| 0.23447      0.6121|] Cmatrix=[0  0| 0  0|]
New Line.03552635a_03552636 Phases=2 bus1=03552635a.1.2 bus2=03552636.1.2 Units=km Length=0.06858 Rmatrix=[0.71544     0.12194| 0.12194     0.71544|] Xmatrix=[  0.778     0.30523| 0.30523       0.778|] Cmatrix=[0  0| 0  0|]
New Line.03552636_03552637 Phases=2 bus1=03552636.1.2 bus2=03552637.1.2 Units=km Length=0.12253 Rmatrix=[0.71544     0.12194| 0.12194     0.71544|] Xmatrix=[  0.778     0.30523| 0.30523       0.778|] Cmatrix=[0  0| 0  0|]
New Line.03552641_03552641a Phases=2 bus1=03552641.1.2 bus2=03552641a.1.2 Units=km Length=0.003048 Rmatrix=[0.12456     0.03762| 0.03762     0.12456|] Xmatrix=[ 0.6121     0.23447| 0.23447      0.6121|] Cmatrix=[0  0| 0  0|]
New Line.03552639a_03552640 Phases=1 bus1=03552639a.2 bus2=03552640.2 Units=km Length=0.031394 Rmatrix=0.5935 Xmatrix=0.47277 Cmatrix=0
New Line.03552641a_03552642 Phases=2 bus1=03552641a.1.2 bus2=03552642.1.2 Units=km Length=0.077724 Rmatrix=[ 1.6358     0.13845| 0.13845      1.6358|] Xmatrix=[0.90256     0.39469| 0.39469     0.90256|] Cmatrix=[0  0| 0  0|]
New Line.03552642_03552643 Phases=2 bus1=03552642.1.2 bus2=03552643.1.2 Units=km Length=0.057333 Rmatrix=[ 1.6358     0.13845| 0.13845      1.6358|] Xmatrix=[0.90256     0.39469| 0.39469     0.90256|] Cmatrix=[0  0| 0  0|]
New Line.03552643_03552644 Phases=2 bus1=03552643.1.2 bus2=03552644.1.2 Units=km Length=0.049103 Rmatrix=[ 1.6358     0.13845| 0.13845      1.6358|] Xmatrix=[0.90256     0.39469| 0.39469     0.90256|] Cmatrix=[0  0| 0  0|]
New Line.03552644_03552644a Phases=2 bus1=03552644.1.2 bus2=03552644a.1.2 Units=km Length=0.003048 Rmatrix=[0.12456     0.03762| 0.03762     0.12456|] Xmatrix=[ 0.6121     0.23447| 0.23447      0.6121|] Cmatrix=[0  0| 0  0|]
[...]
New Invcontrol.InvForPV_0355909.1_from_0355909.1 PVSystemList=PV_0355909.1_from_0355909.1 Mode=VOLTVAR voltage_curvex_ref=rated vvc_curve1=CurveFor_InvForPV_0355909.1_from_0355909.1 DeltaQ_factor=0.01 hysteresis_offset=0 avgwindowlen=0s VoltageChangeTolerance=0.0001 VarChangeTolerance=0.0001 RateofChangeMode=INACTIVE LPFtau=0 RiseFallLimit=0.001 EventLog=Yes
New Invcontrol.InvForPV_0355912.1_from_0355912.1 PVSystemList=PV_0355912.1_from_0355912.1 Mode=VOLTVAR voltage_curvex_ref=rated vvc_curve1=CurveFor_InvForPV_0355912.1_from_0355912.1 DeltaQ_factor=0.01 hysteresis_offset=0 avgwindowlen=0s VoltageChangeTolerance=0.0001 VarChangeTolerance=0.0001 RateofChangeMode=INACTIVE LPFtau=0 RiseFallLimit=0.001 EventLog=Yes
New Invcontrol.InvForPV_0355915.1_from_0355915.1 PVSystemList=PV_0355915.1_from_0355915.1 Mode=VOLTVAR voltage_curvex_ref=rated vvc_curve1=CurveFor_InvForPV_0355915.1_from_0355915.1 DeltaQ_factor=0.01 hysteresis_offset=0 avgwindowlen=0s VoltageChangeTolerance=0.0001 VarChangeTolerance=0.0001 RateofChangeMode=INACTIVE LPFtau=0 RiseFallLimit=0.001 EventLog=Yes
New Invcontrol.InvForPV_0355916.1_from_0355916.1 PVSystemList=PV_0355916.1_from_0355916.1 Mode=VOLTVAR voltage_curvex_ref=rated vvc_curve1=CurveFor_InvForPV_0355916.1_from_0355916.1 DeltaQ_factor=0.01 hysteresis_offset=0 avgwindowlen=0s VoltageChangeTolerance=0.0001 VarChangeTolerance=0.0001 RateofChangeMode=INACTIVE LPFtau=0 RiseFallLimit=0.001 EventLog=Yes
New Invcontrol.InvForPV_0355921.1_from_0355921.1 PVSystemList=PV_0355921.1_from_0355921.1 Mode=VOLTVAR voltage_curvex_ref=rated vvc_curve1=CurveFor_InvForPV_0355921.1_from_0355921.1 DeltaQ_factor=0.01 hysteresis_offset=0 avgwindowlen=0s VoltageChangeTolerance=0.0001 VarChangeTolerance=0.0001 RateofChangeMode=INACTIVE LPFtau=0 RiseFallLimit=0.001 EventLog=Yes
New Invcontrol.InvForPV_0355921.2_from_0355921.2 PVSystemList=PV_0355921.2_from_0355921.2 Mode=VOLTVAR voltage_curvex_ref=rated vvc_curve1=CurveFor_InvForPV_0355921.2_from_0355921.2 DeltaQ_factor=0.01 hysteresis_offset=0 avgwindowlen=0s VoltageChangeTolerance=0.0001 VarChangeTolerance=0.0001 RateofChangeMode=INACTIVE LPFtau=0 RiseFallLimit=0.001 EventLog=Yes
New Invcontrol.InvForPV_0355923.1_from_0355923.1 PVSystemList=PV_0355923.1_from_0355923.1 Mode=VOLTVAR voltage_curvex_ref=rated vvc_curve1=CurveFor_InvForPV_0355923.1_from_0355923.1 DeltaQ_factor=0.01 hysteresis_offset=0 avgwindowlen=0s VoltageChangeTolerance=0.0001 VarChangeTolerance=0.0001 RateofChangeMode=INACTIVE LPFtau=0 RiseFallLimit=0.001 EventLog=Yes
New Invcontrol.InvForPV_0355923.2_from_0355923.2 PVSystemList=PV_0355923.2_from_0355923.2 Mode=VOLTVAR voltage_curvex_ref=rated vvc_curve1=CurveFor_InvForPV_0355923.2_from_0355923.2 DeltaQ_factor=0.01 hysteresis_offset=0 avgwindowlen=0s VoltageChangeTolerance=0.0001 VarChangeTolerance=0.0001 RateofChangeMode=INACTIVE LPFtau=0 RiseFallLimit=0.001 EventLog=Yes
New Invcontrol.InvForPV_0355921A.1_from_0355921A.1 PVSystemList=PV_0355921A.1_from_0355921A.1 Mode=VOLTVAR voltage_curvex_ref=rated vvc_curve1=CurveFor_InvForPV_0355921A.1_from_0355921A.1 DeltaQ_factor=0.01 hysteresis_offset=0 avgwindowlen=0s VoltageChangeTolerance=0.0001 VarChangeTolerance=0.0001 RateofChangeMode=INACTIVE LPFtau=0 RiseFallLimit=0.001 EventLog=Yes
New Invcontrol.InvForPV_0355921A.2_from_0355921A.2 PVSystemList=PV_0355921A.2_from_0355921A.2 Mode=VOLTVAR voltage_curvex_ref=rated vvc_curve1=CurveFor_InvForPV_0355921A.2_from_0355921A.2 DeltaQ_factor=0.01 hysteresis_offset=0 avgwindowlen=0s VoltageChangeTolerance=0.0001 VarChangeTolerance=0.0001 RateofChangeMode=INACTIVE LPFtau=0 RiseFallLimit=0.001 EventLog=Yes
New Invcontrol.InvForPV_0355924.1_from_0355924.1 PVSystemList=PV_0355924.1_from_0355924.1 Mode=VOLTVAR voltage_curvex_ref=rated vvc_curve1=CurveFor_InvForPV_0355924.1_from_0355924.1 DeltaQ_factor=0.01 hysteresis_offset=0 avgwindowlen=0s VoltageChangeTolerance=0.0001 VarChangeTolerance=0.0001 RateofChangeMode=INACTIVE LPFtau=0 RiseFallLimit=0.001 EventLog=Yes
New Invcontrol.InvForPV_0355924.2_from_0355924.2 PVSystemList=PV_0355924.2_from_0355924.2 Mode=VOLTVAR voltage_curvex_ref=rated vvc_curve1=CurveFor_InvForPV_0355924.2_from_0355924.2 DeltaQ_factor=0.01 hysteresis_offset=0 avgwindowlen=0s VoltageChangeTolerance=0.0001 VarChangeTolerance=0.0001 RateofChangeMode=INACTIVE LPFtau=0 RiseFallLimit=0.001 EventLog=Yes
New Invcontrol.InvForPV_0355930.1_from_0355930.1 PVSystemList=PV_0355930.1_from_0355930.1 Mode=VOLTVAR voltage_curvex_ref=rated vvc_curve1=CurveFor_InvForPV_0355930.1_from_0355930.1 DeltaQ_factor=0.01 hysteresis_offset=0 avgwindowlen=0s VoltageChangeTolerance=0.0001 VarChangeTolerance=0.0001 RateofChangeMode=INACTIVE LPFtau=0 RiseFallLimit=0.001 EventLog=Yes
New Invcontrol.InvForPV_0355930.2_from_0355930.2 PVSystemList=PV_0355930.2_from_0355930.2 Mode=VOLTVAR voltage_curvex_ref=rated vvc_curve1=CurveFor_InvForPV_0355930.2_from_0355930.2 DeltaQ_factor=0.01 hysteresis_offset=0 avgwindowlen=0s VoltageChangeTolerance=0.0001 VarChangeTolerance=0.0001 RateofChangeMode=INACTIVE LPFtau=0 RiseFallLimit=0.001 EventLog=Yes
New Invcontrol.InvForPV_0355925.1_from_0355925.1 PVSystemList=PV_0355925.1_from_0355925.1 Mode=VOLTVAR voltage_curvex_ref=rated vvc_curve1=CurveFor_InvForPV_0355925.1_from_0355925.1 DeltaQ_factor=0.01 hysteresis_offset=0 avgwindowlen=0s VoltageChangeTolerance=0.0001 VarChangeTolerance=0.0001 RateofChangeMode=INACTIVE LPFtau=0 RiseFallLimit=0.001 EventLog=Yes
New Invcontrol.InvForPV_0355925.2_from_0355925.2 PVSystemList=PV_0355925.2_from_0355925.2 Mode=VOLTVAR voltage_curvex_ref=rated vvc_curve1=CurveFor_InvForPV_0355925.2_from_0355925.2 DeltaQ_factor=0.01 hysteresis_offset=0 avgwindowlen=0s VoltageChangeTolerance=0.0001 VarChangeTolerance=0.0001 RateofChangeMode=INACTIVE LPFtau=0 RiseFallLimit=0.001 EventLog=Yes
New Invcontrol.InvForPV_0355926.1_from_0355926.1 PVSystemList=PV_0355926.1_from_0355926.1 Mode=VOLTVAR voltage_curvex_ref=rated vvc_curve1=CurveFor_InvForPV_0355926.1_from_0355926.1 DeltaQ_factor=0.01 hysteresis_offset=0 avgwindowlen=0s VoltageChangeTolerance=0.0001 VarChangeTolerance=0.0001 RateofChangeMode=INACTIVE LPFtau=0 RiseFallLimit=0.001 EventLog=Yes
New Invcontrol.InvForPV_0355926.2_from_0355926.2 PVSystemList=PV_0355926.2_from_0355926.2 Mode=VOLTVAR voltage_curvex_ref=rated vvc_curve1=CurveFor_InvForPV_0355926.2_from_0355926.2 DeltaQ_factor=0.01 hysteresis_offset=0 avgwindowlen=0s VoltageChangeTolerance=0.0001 VarChangeTolerance=0.0001 RateofChangeMode=INACTIVE LPFtau=0 RiseFallLimit=0.001 EventLog=Yes
New Invcontrol.InvForPV_0355928.1_from_0355928.1 PVSystemList=PV_0355928.1_from_0355928.1 Mode=VOLTVAR voltage_curvex_ref=rated vvc_curve1=CurveFor_InvForPV_0355928.1_from_0355928.1 DeltaQ_factor=0.01 hysteresis_offset=0 avgwindowlen=0s VoltageChangeTolerance=0.0001 VarChangeTolerance=0.0001 RateofChangeMode=INACTIVE LPFtau=0 RiseFallLimit=0.001 EventLog=Yes
New Invcontrol.InvForPV_0355928.2_from_0355928.2 PVSystemList=PV_0355928.2_from_0355928.2 Mode=VOLTVAR voltage_curvex_ref=rated vvc_curve1=CurveFor_InvForPV_0355928.2_from_0355928.2 DeltaQ_factor=0.01 hysteresis_offset=0 avgwindowlen=0s VoltageChangeTolerance=0.0001 VarChangeTolerance=0.0001 RateofChangeMode=INACTIVE LPFtau=0 RiseFallLimit=0.001 EventLog=Yes
New Invcontrol.InvForPV_0355929.1_from_0355929.1 PVSystemList=PV_0355929.1_from_0355929.1 Mode=VOLTVAR voltage_curvex_ref=rated vvc_curve1=CurveFor_InvForPV_0355929.1_from_0355929.1 DeltaQ_factor=0.01 hysteresis_offset=0 avgwindowlen=0s VoltageChangeTolerance=0.0001 VarChangeTolerance=0.0001 RateofChangeMode=INACTIVE LPFtau=0 RiseFallLimit=0.001 EventLog=Yes
New Invcontrol.InvForPV_0355929.2_from_0355929.2 PVSystemList=PV_0355929.2_from_0355929.2 Mode=VOLTVAR voltage_curvex_ref=rated vvc_curve1=CurveFor_InvForPV_0355929.2_from_0355929.2 DeltaQ_factor=0.01 hysteresis_offset=0 avgwindowlen=0s VoltageChangeTolerance=0.0001 VarChangeTolerance=0.0001 RateofChangeMode=INACTIVE LPFtau=0 RiseFallLimit=0.001 EventLog=Yes
New Invcontrol.InvForPV_0355933.1_from_0355933.1 PVSystemList=PV_0355933.1_from_0355933.1 Mode=VOLTVAR voltage_curvex_ref=rated vvc_curve1=CurveFor_InvForPV_0355933.1_from_0355933.1 DeltaQ_factor=0.01 hysteresis_offset=0 avgwindowlen=0s VoltageChangeTolerance=0.0001 VarChangeTolerance=0.0001 RateofChangeMode=INACTIVE LPFtau=0 RiseFallLimit=0.001 EventLog=Yes
New Invcontrol.InvForPV_0355933.2_from_0355933.2 PVSystemList=PV_0355933.2_from_0355933.2 Mode=VOLTVAR voltage_curvex_ref=rated vvc_curve1=CurveFor_InvForPV_0355933.2_from_0355933.2 DeltaQ_factor=0.01 hysteresis_offset=0 avgwindowlen=0s VoltageChangeTolerance=0.0001 VarChangeTolerance=0.0001 RateofChangeMode=INACTIVE LPFtau=0 RiseFallLimit=0.001 EventLog=Yes
New Invcontrol.InvForPV_0355930A.1_from_0355930A.1 PVSystemList=PV_0355930A.1_from_0355930A.1 Mode=VOLTVAR voltage_curvex_ref=rated vvc_curve1=CurveFor_InvForPV_0355930A.1_from_0355930A.1 DeltaQ_factor=0.01 hysteresis_offset=0 avgwindowlen=0s VoltageChangeTolerance=0.0001 VarChangeTolerance=0.0001 RateofChangeMode=INACTIVE LPFtau=0 RiseFallLimit=0.001 EventLog=Yes
New Invcontrol.InvForPV_0355930A.2_from_0355930A.2 PVSystemList=PV_0355930A.2_from_0355930A.2 Mode=VOLTVAR voltage_curvex_ref=rated vvc_curve1=CurveFor_InvForPV_0355930A.2_from_0355930A.2 DeltaQ_factor=0.01 hysteresis_offset=0 avgwindowlen=0s VoltageChangeTolerance=0.0001 VarChangeTolerance=0.0001 RateofChangeMode=INACTIVE LPFtau=0 RiseFallLimit=0.001 EventLog=Yes
New Invcontrol.InvForPV_0355931.1_from_0355931.1 PVSystemList=PV_0355931.1_from_0355931.1 Mode=VOLTVAR voltage_curvex_ref=rated vvc_curve1=CurveFor_InvForPV_0355931.1_from_0355931.1 DeltaQ_factor=0.01 hysteresis_offset=0 avgwindowlen=0s VoltageChangeTolerance=0.0001 VarChangeTolerance=0.0001 RateofChangeMode=INACTIVE LPFtau=0 RiseFallLimit=0.001 EventLog=Yes
New Invcontrol.InvForPV_0355931.2_from_0355931.2 PVSystemList=PV_0355931.2_from_0355931.2 Mode=VOLTVAR voltage_curvex_ref=rated vvc_curve1=CurveFor_InvForPV_0355931.2_from_0355931.2 DeltaQ_factor=0.01 hysteresis_offset=0 avgwindowlen=0s VoltageChangeTolerance=0.0001 VarChangeTolerance=0.0001 RateofChangeMode=INACTIVE LPFtau=0 RiseFallLimit=0.001 EventLog=Yes
New Invcontrol.InvForPV_0355939.1_from_0355939.1 PVSystemList=PV_0355939.1_from_0355939.1 Mode=VOLTVAR voltage_curvex_ref=rated vvc_curve1=CurveFor_InvForPV_0355939.1_from_0355939.1 DeltaQ_factor=0.01 hysteresis_offset=0 avgwindowlen=0s VoltageChangeTolerance=0.0001 VarChangeTolerance=0.0001 RateofChangeMode=INACTIVE LPFtau=0 RiseFallLimit=0.001 EventLog=Yes
New Invcontrol.InvForPV_0355939.2_from_0355939.2 PVSystemList=PV_0355939.2_from_0355939.2 Mode=VOLTVAR voltage_curvex_ref=rated vvc_curve1=CurveFor_InvForPV_0355939.2_from_0355939.2 DeltaQ_factor=0.01 hysteresis_offset=0 avgwindowlen=0s VoltageChangeTolerance=0.0001 VarChangeTolerance=0.0001 RateofChangeMode=INACTIVE LPFtau=0 RiseFallLimit=0.001 EventLog=Yes
New Invcontrol.InvForPV_0355933A.1_from_0355933A.1 PVSystemList=PV_0355933A.1_from_0355933A.1 Mode=VOLTVAR voltage_curvex_ref=rated vvc_curve1=CurveFor_InvForPV_0355933A.1_from_0355933A.1 DeltaQ_factor=0.01 hysteresis_offset=0 avgwindowlen=0s VoltageChangeTolerance=0.0001 VarChangeTolerance=0.0001 RateofChangeMode=INACTIVE LPFtau=0 RiseFallLimit=0.001 EventLog=Yes
New Invcontrol.InvForPV_0355933A.2_from_0355933A.2 PVSystemList=PV_0355933A.2_from_0355933A.2 Mode=VOLTVAR voltage_curvex_ref=rated vvc_curve1=CurveFor_InvForPV_0355933A.2_from_0355933A.2 DeltaQ_factor=0.01 hysteresis_offset=0 avgwindowlen=0s VoltageChangeTolerance=0.0001 VarChangeTolerance=0.0001 RateofChangeMode=INACTIVE LPFtau=0 RiseFallLimit=0.001 EventLog=Yes
New Invcontrol.InvForPV_0355934.1_from_0355934.1 PVSystemList=PV_0355934.1_from_0355934.1 Mode=VOLTVAR voltage_curvex_ref=rated vvc_curve1=CurveFor_InvForPV_0355934.1_from_0355934.1 DeltaQ_factor=0.01 hysteresis_offset=0 avgwindowlen=0s VoltageChangeTolerance=0.0001 VarChangeTolerance=0.0001 RateofChangeMode=INACTIVE LPFtau=0 RiseFallLimit=0.001 EventLog=Yes
New Invcontrol.InvForPV_0355934.2_from_0355934.2 PVSystemList=PV_0355934.2_from_0355934.2 Mode=VOLTVAR voltage_curvex_ref=rated vvc_curve1=CurveFor_InvForPV_0355934.2_from_0355934.2 DeltaQ_factor=0.01 hysteresis_offset=0 avgwindowlen=0s VoltageChangeTolerance=0.0001 VarChangeTolerance=0.0001 RateofChangeMode=INACTIVE LPFtau=0 RiseFallLimit=0.001 EventLog=Yes
New Invcontrol.InvForPV_0355936.1_from_0355936.1 PVSystemList=PV_0355936.1_from_0355936.1 Mode=VOLTVAR voltage_curvex_ref=rated vvc_curve1=CurveFor_InvForPV_0355936.1_from_0355936.1 DeltaQ_factor=0.01 hysteresis_offset=0 avgwindowlen=0s VoltageChangeTolerance=0.0001 VarChangeTolerance=0.0001 RateofChangeMode=INACTIVE LPFtau=0 RiseFallLimit=0.001 EventLog=Yes
New Invcontrol.InvForPV_0355936.2_from_0355936.2 PVSystemList=PV_0355936.2_from_0355936.2 Mode=VOLTVAR voltage_curvex_ref=rated vvc_curve1=CurveFor_InvForPV_0355936.2_from_0355936.2 DeltaQ_factor=0.01 hysteresis_offset=0 avgwindowlen=0s VoltageChangeTolerance=0.0001 VarChangeTolerance=0.0001 RateofChangeMode=INACTIVE LPFtau=0 RiseFallLimit=0.001 EventLog=Yes
New Invcontrol.InvForPV_0355937.1_from_0355937.1 PVSystemList=PV_0355937.1_from_0355937.1 Mode=VOLTVAR voltage_curvex_ref=rated vvc_curve1=CurveFor_InvForPV_0355937.1_from_0355937.1 DeltaQ_factor=0.01 hysteresis_offset=0 avgwindowlen=0s VoltageChangeTolerance=0.0001 VarChangeTolerance=0.0001 RateofChangeMode=INACTIVE LPFtau=0 RiseFallLimit=0.001 EventLog=Yes
New Invcontrol.InvForPV_0355937.2_from_0355937.2 PVSystemList=PV_0355937.2_from_0355937.2 Mode=VOLTVAR voltage_curvex_ref=rated vvc_curve1=CurveFor_InvForPV_0355937.2_from_0355937.2 DeltaQ_factor=0.01 hysteresis_offset=0 avgwindowlen=0s VoltageChangeTolerance=0.0001 VarChangeTolerance=0.0001 RateofChangeMode=INACTIVE LPFtau=0 RiseFallLimit=0.001 EventLog=Yes
New Invcontrol.InvForPV_0355939A.1_from_0355939A.1 PVSystemList=PV_0355939A.1_from_0355939A.1 Mode=VOLTVAR voltage_curvex_ref=rated vvc_curve1=CurveFor_InvForPV_0355939A.1_from_0355939A.1 DeltaQ_factor=0.01 hysteresis_offset=0 avgwindowlen=0s VoltageChangeTolerance=0.0001 VarChangeTolerance=0.0001 RateofChangeMode=INACTIVE LPFtau=0 RiseFallLimit=0.001 EventLog=Yes
New Invcontrol.InvForPV_0355939A.2_from_0355939A.2 PVSystemList=PV_0355939A.2_from_0355939A.2 Mode=VOLTVAR voltage_curvex_ref=rated vvc_curve1=CurveFor_InvForPV_0355939A.2_from_0355939A.2 DeltaQ_factor=0.01 hysteresis_offset=0 avgwindowlen=0s VoltageChangeTolerance=0.0001 VarChangeTolerance=0.0001 RateofChangeMode=INACTIVE LPFtau=0 RiseFallLimit=0.001 EventLog=Yes
New Invcontrol.InvForPV_0355940.1_from_0355940.1 PVSystemList=PV_0355940.1_from_0355940.1 Mode=VOLTVAR voltage_curvex_ref=rated vvc_curve1=CurveFor_InvForPV_0355940.1_from_0355940.1 DeltaQ_factor=0.01 hysteresis_offset=0 avgwindowlen=0s VoltageChangeTolerance=0.0001 VarChangeTolerance=0.0001 RateofChangeMode=INACTIVE LPFtau=0 RiseFallLimit=0.001 EventLog=Yes
New Invcontrol.InvForPV_0355940.2_from_0355940.2 PVSystemList=PV_0355940.2_from_0355940.2 Mode=VOLTVAR voltage_curvex_ref=rated vvc_curve1=CurveFor_InvForPV_0355940.2_from_0355940.2 DeltaQ_factor=0.01 hysteresis_offset=0 avgwindowlen=0s VoltageChangeTolerance=0.0001 VarChangeTolerance=0.0001 RateofChangeMode=INACTIVE LPFtau=0 RiseFallLimit=0.001 EventLog=Yes
New Invcontrol.InvForPV_0355941.1_from_0355941.1 PVSystemList=PV_0355941.1_from_0355941.1 Mode=VOLTVAR voltage_curvex_ref=rated vvc_curve1=CurveFor_InvForPV_0355941.1_from_0355941.1 DeltaQ_factor=0.01 hysteresis_offset=0 avgwindowlen=0s VoltageChangeTolerance=0.0001 VarChangeTolerance=0.0001 RateofChangeMode=INACTIVE LPFtau=0 RiseFallLimit=0.001 EventLog=Yes
New Invcontrol.InvForPV_0355941.2_from_0355941.2 PVSystemList=PV_0355941.2_from_0355941.2 Mode=VOLTVAR voltage_curvex_ref=rated vvc_curve1=CurveFor_InvForPV_0355941.2_from_0355941.2 DeltaQ_factor=0.01 hysteresis_offset=0 avgwindowlen=0s VoltageChangeTolerance=0.0001 VarChangeTolerance=0.0001 RateofChangeMode=INACTIVE LPFtau=0 RiseFallLimit=0.001 EventLog=Yes
New Invcontrol.InvForPV_0355945.1_from_0355945.1 PVSystemList=PV_0355945.1_from_0355945.1 Mode=VOLTVAR voltage_curvex_ref=rated vvc_curve1=CurveFor_InvForPV_0355945.1_from_0355945.1 DeltaQ_factor=0.01 hysteresis_offset=0 avgwindowlen=0s VoltageChangeTolerance=0.0001 VarChangeTolerance=0.0001 RateofChangeMode=INACTIVE LPFtau=0 RiseFallLimit=0.001 EventLog=Yes
New Invcontrol.InvForPV_0355945.2_from_0355945.2 PVSystemList=PV_0355945.2_from_0355945.2 Mode=VOLTVAR voltage_curvex_ref=rated vvc_curve1=CurveFor_InvForPV_0355945.2_from_0355945.2 DeltaQ_factor=0.01 hysteresis_offset=0 avgwindowlen=0s VoltageChangeTolerance=0.0001 VarChangeTolerance=0.0001 RateofChangeMode=INACTIVE LPFtau=0 RiseFallLimit=0.001 EventLog=Yes
New Invcontrol.InvForPV_0355946.1_from_0355946.1 PVSystemList=PV_0355946.1_from_0355946.1 Mode=VOLTVAR voltage_curvex_ref=rated vvc_curve1=CurveFor_InvForPV_0355946.1_from_0355946.1 DeltaQ_factor=0.01 hysteresis_offset=0 avgwindowlen=0s VoltageChangeTolerance=0.0001 VarChangeTolerance=0.0001 RateofChangeMode=INACTIVE LPFtau=0 RiseFallLimit=0.001 EventLog=Yes
New Invcontrol.InvForPV_0355946.2_from_0355946.2 PVSystemList=PV_0355946.2_from_0355946.2 Mode=VOLTVAR voltage_curvex_ref=rated vvc_curve1=CurveFor_InvForPV_0355946.2_from_0355946.2 DeltaQ_factor=0.01 hysteresis_offset=0 avgwindowlen=0s VoltageChangeTolerance=0.0001 VarChangeTolerance=0.0001 RateofChangeMode=INACTIVE LPFtau=0 RiseFallLimit=0.001 EventLog=Yes
New Invcontrol.InvForPV_0355947.1_from_0355947.1 PVSystemList=PV_0355947.1_from_0355947.1 Mode=VOLTVAR voltage_curvex_ref=rated vvc_curve1=CurveFor_InvForPV_0355947.1_from_0355947.1 DeltaQ_factor=0.01 hysteresis_offset=0 avgwindowlen=0s VoltageChangeTolerance=0.0001 VarChangeTolerance=0.0001 RateofChangeMode=INACTIVE LPFtau=0 RiseFallLimit=0.001 EventLog=Yes
New Invcontrol.InvForPV_0355947.2_from_0355947.2 PVSystemList=PV_0355947.2_from_0355947.2 Mode=VOLTVAR voltage_curvex_ref=rated vvc_curve1=CurveFor_InvForPV_0355947.2_from_0355947.2 DeltaQ_factor=0.01 hysteresis_offset=0 avgwindowlen=0s VoltageChangeTolerance=0.0001 VarChangeTolerance=0.0001 RateofChangeMode=INACTIVE LPFtau=0 RiseFallLimit=0.001 EventLog=Yes
New Invcontrol.InvForPV_0355949A.2_from_0355949A.2 PVSystemList=PV_0355949A.2_from_0355949A.2 Mode=VOLTVAR voltage_curvex_ref=rated vvc_curve1=CurveFor_InvForPV_0355949A.2_from_0355949A.2 DeltaQ_factor=0.01 hysteresis_offset=0 avgwindowlen=0s VoltageChangeTolerance=0.0001 VarChangeTolerance=0.0001 RateofChangeMode=INACTIVE LPFtau=0 RiseFallLimit=0.001 EventLog=Yes
New Invcontrol.InvForPV_0355949A.3_from_0355949A.3 PVSystemList=PV_0355949A.3_from_0355949A.3 Mode=VOLTVAR voltage_curvex_ref=rated vvc_curve1=CurveFor_InvForPV_0355949A.3_from_0355949A.3 DeltaQ_factor=0.01 hysteresis_offset=0 avgwindowlen=0s VoltageChangeTolerance=0.0001 VarChangeTolerance=0.0001 RateofChangeMode=INACTIVE LPFtau=0 RiseFallLimit=0.001 EventLog=Yes
New Invcontrol.InvForPV_0355952.2_from_0355952.2 PVSystemList=PV_0355952.2_from_0355952.2 Mode=VOLTVAR voltage_curvex_ref=rated vvc_curve1=CurveFor_InvForPV_0355952.2_from_0355952.2 DeltaQ_factor=0.01 hysteresis_offset=0 avgwindowlen=0s VoltageChangeTolerance=0.0001 VarChangeTolerance=0.0001 RateofChangeMode=INACTIVE LPFtau=0 RiseFallLimit=0.001 EventLog=Yes
New Invcontrol.InvForPV_0355952.3_from_0355952.3 PVSystemList=PV_0355952.3_from_0355952.3 Mode=VOLTVAR voltage_curvex_ref=rated vvc_curve1=CurveFor_InvForPV_0355952.3_from_0355952.3 DeltaQ_factor=0.01 hysteresis_offset=0 avgwindowlen=0s VoltageChangeTolerance=0.0001 VarChangeTolerance=0.0001 RateofChangeMode=INACTIVE LPFtau=0 RiseFallLimit=0.001 EventLog=Yes


! Let DSS estimate the voltage bases
Set voltagebases=[12 12]
Calcvoltagebases     ! This also establishes the bus list

Buscoords OutputDSS_buscoords.csv


set maxiterations=1000
