Clear

New Circuit.ckt7_Reduced bus1=SourceBus basekv=115 pu=1.05 R1=2.314 X1=28.52 R0=0.0001 X0=0.0001
New Line.ckt7_318405 Phases=3 bus1=ckt7.1.2.3 bus2=318405.1.2.3 Units=km Length=1e-07 Rmatrix=[0                  0                  0| 0                  0                  0| 0                  0                  0|] Xmatrix=[0.0999999992251                  0                  0|               0     0.100000001333                  0|               0                  0     0.100000000155|] Cmatrix=[0                  0                  0| 0                  0                  0| 0                  0                  0|]
New Line.ckt7_318412 Phases=3 bus1=ckt7.1.2.3 bus2=318412.1.2.3 Units=km Length=1e-07 Rmatrix=[0                  0                  0| 0                  0                  0| 0                  0                  0|] Xmatrix=[0.09999999874                  0                  0|             0     0.100000000868                  0|             0                  0    0.0999999994801|] Cmatrix=[0                  0                  0| 0                  0                  0| 0                  0                  0|]
New Line.ckt7_318414 Phases=3 bus1=ckt7.1.2.3 bus2=318414.1.2.3 Units=km Length=1e-07 Rmatrix=[0                  0                  0| 0                  0                  0| 0                  0                  0|] Xmatrix=[0.0999999988509                  0                  0|               0     0.100000000054                  0|               0                  0     0.100000001325|] Cmatrix=[0                  0                  0| 0                  0                  0| 0                  0                  0|]
New Line.318412_253843 Phases=3 bus1=318412.1.2.3 bus2=253843.1.2.3 Units=km Length=0.09880038 Rmatrix=[0.317585352275     0.261152331232     0.261152343066| 0.261152331232     0.317585323329     0.261152338993| 0.261152343066     0.261152338993     0.317585324779|] Xmatrix=[ 0.0851913353833   -0.0174986689678   -0.0174986787071| -0.0174986689678    0.0851913248395   -0.0174986730375| -0.0174986787071   -0.0174986730375    0.0851913234447|] Cmatrix=[0                  0                  0| 0                  0                  0| 0                  0                  0|]
New Line.157345_157347 Phases=3 bus1=157345.1.2.3 bus2=157347.1.2.3 Units=km Length=0.03708014 Rmatrix=[ 0.8025            0.15355            0.15355| 0.15355             0.8025            0.15355| 0.15355            0.15355             0.8025|] Xmatrix=[0.886926666667     0.380036666667     0.380036666667| 0.380036666667     0.886926666667     0.380036666667| 0.380036666667     0.380036666667     0.886926666667|] Cmatrix=[0                  0                  0| 0                  0                  0| 0                  0                  0|]
New Line.157346_157345 Phases=3 bus1=157346.1.2.3 bus2=157345.1.2.3 Units=km Length=0.007720029 Rmatrix=[ 0.277543333333    0.0911333333333    0.0911333333333| 0.0911333333333     0.277543333333    0.0911333333333| 0.0911333333333    0.0911333333333     0.277543333333|] Xmatrix=[0.66072            0.26304            0.26304| 0.26304            0.66072            0.26304| 0.26304            0.26304            0.66072|] Cmatrix=[0                  0                  0| 0                  0                  0| 0                  0                  0|]
New Line.165442_298160 Phases=3 bus1=165442.1.2.3 bus2=298160.1.2.3 Units=km Length=0.2275909 Rmatrix=[ 0.192625999998     0.093207000001    0.0932069999989|  0.093207000001     0.192626000003    0.0932069999994| 0.0932069999989    0.0932069999994     0.192625999999|] Xmatrix=[ 0.64830666667     0.281696666665     0.281696666667| 0.281696666665     0.648306666662     0.281696666666| 0.281696666667     0.281696666666     0.648306666666|] Cmatrix=[0                  0                  0| 0                  0                  0| 0                  0                  0|]
New Line.298160_298159 Phases=3 bus1=298160.1.2.3 bus2=298159.1.2.3 Units=km Length=0.001 Rmatrix=[1                  0                  0| 0                  1                  0| 0                  0                  1|] Xmatrix=[1                  0                  0| 0                  1                  0| 0                  0                  1|] Cmatrix=[0                  0                  0| 0                  0                  0| 0                  0                  0|]
New Line.165448_275354 Phases=3 bus1=165448.1.2.3 bus2=275354.1.2.3 Units=km Length=0.3254212 Rmatrix=[0.192626           0.093207           0.093207| 0.093207           0.192626           0.093207| 0.093207           0.093207           0.192626|] Xmatrix=[0.648306666667     0.281696666667     0.281696666667| 0.281696666667     0.648306666667     0.281696666667| 0.281696666667     0.281696666667     0.648306666667|] Cmatrix=[0                  0                  0| 0                  0                  0| 0                  0                  0|]
New Line.275354_165449 Phases=3 bus1=275354.1.2.3 bus2=165449.1.2.3 Units=km Length=0.0250801 Rmatrix=[0.192626           0.093207           0.093207| 0.093207           0.192626           0.093207| 0.093207           0.093207           0.192626|] Xmatrix=[0.648306666667     0.281696666667     0.281696666667| 0.281696666667     0.648306666667     0.281696666667| 0.281696666667     0.281696666667     0.648306666667|] Cmatrix=[0                  0                  0| 0                  0                  0| 0                  0                  0|]
New Line.165449_165450 Phases=3 bus1=165449.1.2.3 bus2=165450.1.2.3 Units=km Length=0.05107019 Rmatrix=[ 1.18886666667     0.138766666667     0.138766666667| 0.138766666667      1.18886666667     0.138766666667| 0.138766666667     0.138766666667      1.18886666667|] Xmatrix=[ 0.8865            0.36455            0.36455| 0.36455             0.8865            0.36455| 0.36455            0.36455             0.8865|] Cmatrix=[0                  0                  0| 0                  0                  0| 0                  0                  0|]
New Line.165449_165451 Phases=3 bus1=165449.1.2.3 bus2=165451.1.2.3 Units=km Length=0.08607032 Rmatrix=[0.192626           0.093207           0.093207| 0.093207           0.192626           0.093207| 0.093207           0.093207           0.192626|] Xmatrix=[0.648306666667     0.281696666667     0.281696666667| 0.281696666667     0.648306666667     0.281696666667| 0.281696666667     0.281696666667     0.648306666667|] Cmatrix=[0                  0                  0| 0                  0                  0| 0                  0                  0|]
New Line.165453_165454 Phases=3 bus1=165453.1.2.3 bus2=165454.1.2.3 Units=km Length=0.02336009 Rmatrix=[ 1.18886666667     0.138766666667     0.138766666667| 0.138766666667      1.18886666667     0.138766666667| 0.138766666667     0.138766666667      1.18886666667|] Xmatrix=[ 0.8865            0.36455            0.36455| 0.36455             0.8865            0.36455| 0.36455            0.36455             0.8865|] Cmatrix=[0                  0                  0| 0                  0                  0| 0                  0                  0|]
New Line.165454_238402 Phases=3 bus1=165454.1.2.3 bus2=238402.1.2.3 Units=km Length=0.01573006 Rmatrix=[ 1.18886666667     0.138766666667     0.138766666667| 0.138766666667      1.18886666667     0.138766666667| 0.138766666667     0.138766666667      1.18886666667|] Xmatrix=[ 0.8865            0.36455            0.36455| 0.36455             0.8865            0.36455| 0.36455            0.36455             0.8865|] Cmatrix=[0                  0                  0| 0                  0                  0| 0                  0                  0|]
New Line.165451_165453 Phases=3 bus1=165451.1.2.3 bus2=165453.1.2.3 Units=km Length=0.03575013 Rmatrix=[ 1.18886666667     0.138766666667     0.138766666667| 0.138766666667      1.18886666667     0.138766666667| 0.138766666667     0.138766666667      1.18886666667|] Xmatrix=[ 0.8865            0.36455            0.36455| 0.36455             0.8865            0.36455| 0.36455            0.36455             0.8865|] Cmatrix=[0                  0                  0| 0                  0                  0| 0                  0                  0|]
New Line.165451_165459 Phases=3 bus1=165451.1.2.3 bus2=165459.1.2.3 Units=km Length=0.04332016 Rmatrix=[ 1.18886666667     0.138766666667     0.138766666667| 0.138766666667      1.18886666667     0.138766666667| 0.138766666667     0.138766666667      1.18886666667|] Xmatrix=[ 0.8865            0.36455            0.36455| 0.36455             0.8865            0.36455| 0.36455            0.36455             0.8865|] Cmatrix=[0                  0                  0| 0                  0                  0| 0                  0                  0|]
New Line.165451_165467 Phases=3 bus1=165451.1.2.3 bus2=165467.1.2.3 Units=km Length=0.05153019 Rmatrix=[ 1.18886666667     0.138766666667     0.138766666667| 0.138766666667      1.18886666667     0.138766666667| 0.138766666667     0.138766666667      1.18886666667|] Xmatrix=[ 0.8865            0.36455            0.36455| 0.36455             0.8865            0.36455| 0.36455            0.36455             0.8865|] Cmatrix=[0                  0                  0| 0                  0                  0| 0                  0                  0|]
New Line.238402_238403 Phases=3 bus1=238402.1.2.3 bus2=238403.1.2.3 Units=km Length=0.009450035 Rmatrix=[ 0.277543333333    0.0911333333333    0.0911333333333| 0.0911333333333     0.277543333333    0.0911333333333| 0.0911333333333    0.0911333333333     0.277543333333|] Xmatrix=[0.66072            0.26304            0.26304| 0.26304            0.66072            0.26304| 0.26304            0.26304            0.66072|] Cmatrix=[0                  0                  0| 0                  0                  0| 0                  0                  0|]
New Line.165455_165457 Phases=3 bus1=165455.1.2.3 bus2=165457.1.2.3 Units=km Length=0.02135008 Rmatrix=[ 0.8025            0.15355            0.15355| 0.15355             0.8025            0.15355| 0.15355            0.15355             0.8025|] Xmatrix=[0.886926666667     0.380036666667     0.380036666667| 0.380036666667     0.886926666667     0.380036666667| 0.380036666667     0.380036666667     0.886926666667|] Cmatrix=[0                  0                  0| 0                  0                  0| 0                  0                  0|]
New Line.165456_165455 Phases=3 bus1=165456.1.2.3 bus2=165455.1.2.3 Units=km Length=0.01121004 Rmatrix=[ 0.277543333333    0.0911333333333    0.0911333333333| 0.0911333333333     0.277543333333    0.0911333333333| 0.0911333333333    0.0911333333333     0.277543333333|] Xmatrix=[0.66072            0.26304            0.26304| 0.26304            0.66072            0.26304| 0.26304            0.26304            0.66072|] Cmatrix=[0                  0                  0| 0                  0                  0| 0                  0                  0|]
New Line.165452_283563 Phases=3 bus1=165452.1.2.3 bus2=283563.1.2.3 Units=km Length=0.04929019 Rmatrix=[ 1.18886666667     0.138766666667     0.138766666667| 0.138766666667      1.18886666667     0.138766666667| 0.138766666667     0.138766666667      1.18886666667|] Xmatrix=[ 0.8865            0.36455            0.36455| 0.36455             0.8865            0.36455| 0.36455            0.36455             0.8865|] Cmatrix=[0                  0                  0| 0                  0                  0| 0                  0                  0|]
New Line.283563_165456 Phases=3 bus1=283563.1.2.3 bus2=165456.1.2.3 Units=km Length=0.03119012 Rmatrix=[ 1.18886666667     0.138766666667     0.138766666667| 0.138766666667      1.18886666667     0.138766666667| 0.138766666667     0.138766666667      1.18886666667|] Xmatrix=[ 0.8865            0.36455            0.36455| 0.36455             0.8865            0.36455| 0.36455            0.36455             0.8865|] Cmatrix=[0                  0                  0| 0                  0                  0| 0                  0                  0|]
New Line.283563_283566 Phases=3 bus1=283563.1.2.3 bus2=283566.1.2.3 Units=km Length=0.007530029 Rmatrix=[ 1.18886666667     0.138766666667     0.138766666667| 0.138766666667      1.18886666667     0.138766666667| 0.138766666667     0.138766666667      1.18886666667|] Xmatrix=[ 0.8865            0.36455            0.36455| 0.36455             0.8865            0.36455| 0.36455            0.36455             0.8865|] Cmatrix=[0                  0                  0| 0                  0                  0| 0                  0                  0|]
New Line.165458_165460 Phases=3 bus1=165458.1.2.3 bus2=165460.1.2.3 Units=km Length=0.01562006 Rmatrix=[ 0.8025            0.15355            0.15355| 0.15355             0.8025            0.15355| 0.15355            0.15355             0.8025|] Xmatrix=[0.886926666667     0.380036666667     0.380036666667| 0.380036666667     0.886926666667     0.380036666667| 0.380036666667     0.380036666667     0.886926666667|] Cmatrix=[0                  0                  0| 0                  0                  0| 0                  0                  0|]
New Line.165459_165458 Phases=3 bus1=165459.1.2.3 bus2=165458.1.2.3 Units=km Length=0.007640028 Rmatrix=[ 0.277543333333    0.0911333333333    0.0911333333333| 0.0911333333333     0.277543333333    0.0911333333333| 0.0911333333333    0.0911333333333     0.277543333333|] Xmatrix=[0.66072            0.26304            0.26304| 0.26304            0.66072            0.26304| 0.26304            0.26304            0.66072|] Cmatrix=[0                  0                  0| 0                  0                  0| 0                  0                  0|]
New Line.165460_165461 Phases=3 bus1=165460.1.2.3 bus2=165461.1.2.3 Units=km Length=0.264061 Rmatrix=[ 0.8025            0.15355            0.15355| 0.15355             0.8025            0.15355| 0.15355            0.15355             0.8025|] Xmatrix=[0.886926666667     0.380036666667     0.380036666667| 0.380036666667     0.886926666667     0.380036666667| 0.380036666667     0.380036666667     0.886926666667|] Cmatrix=[0                  0                  0| 0                  0                  0| 0                  0                  0|]
New Line.165461_165463 Phases=3 bus1=165461.1.2.3 bus2=165463.1.2.3 Units=km Length=0.08259031 Rmatrix=[ 0.8025            0.15355            0.15355| 0.15355             0.8025            0.15355| 0.15355            0.15355             0.8025|] Xmatrix=[0.886926666667     0.380036666667     0.380036666667| 0.380036666667     0.886926666667     0.380036666667| 0.380036666667     0.380036666667     0.886926666667|] Cmatrix=[0                  0                  0| 0                  0                  0| 0                  0                  0|]
New Line.165461_165466 Phases=3 bus1=165461.1.2.3 bus2=165466.1.2.3 Units=km Length=0.1732906 Rmatrix=[ 0.8025            0.15355            0.15355| 0.15355             0.8025            0.15355| 0.15355            0.15355             0.8025|] Xmatrix=[0.886926666667     0.380036666667     0.380036666667| 0.380036666667     0.886926666667     0.380036666667| 0.380036666667     0.380036666667     0.886926666667|] Cmatrix=[0                  0                  0| 0                  0                  0| 0                  0                  0|]
New Line.165463_165462 Phases=3 bus1=165463.1.2.3 bus2=165462.1.2.3 Units=km Length=0.1009004 Rmatrix=[ 0.8025            0.15355            0.15355| 0.15355             0.8025            0.15355| 0.15355            0.15355             0.8025|] Xmatrix=[0.886926666667     0.380036666667     0.380036666667| 0.380036666667     0.886926666667     0.380036666667| 0.380036666667     0.380036666667     0.886926666667|] Cmatrix=[0                  0                  0| 0                  0                  0| 0                  0                  0|]
New Line.165463_165465 Phases=3 bus1=165463.1.2.3 bus2=165465.1.2.3 Units=km Length=0.01738006 Rmatrix=[ 0.8025            0.15355            0.15355| 0.15355             0.8025            0.15355| 0.15355            0.15355             0.8025|] Xmatrix=[0.886926666667     0.380036666667     0.380036666667| 0.380036666667     0.886926666667     0.380036666667| 0.380036666667     0.380036666667     0.886926666667|] Cmatrix=[0                  0                  0| 0                  0                  0| 0                  0                  0|]
New Line.165467_165468 Phases=3 bus1=165467.1.2.3 bus2=165468.1.2.3 Units=km Length=0.02848011 Rmatrix=[0.192626           0.093207           0.093207| 0.093207           0.192626           0.093207| 0.093207           0.093207           0.192626|] Xmatrix=[0.648306666667     0.281696666667     0.281696666667| 0.281696666667     0.648306666667     0.281696666667| 0.281696666667     0.281696666667     0.648306666667|] Cmatrix=[0                  0                  0| 0                  0                  0| 0                  0                  0|]
New Line.165468_165469 Phases=3 bus1=165468.1.2.3 bus2=165469.1.2.3 Units=km Length=0.0282101 Rmatrix=[0.192626           0.093207           0.093207| 0.093207           0.192626           0.093207| 0.093207           0.093207           0.192626|] Xmatrix=[0.648306666667     0.281696666667     0.281696666667| 0.281696666667     0.648306666667     0.281696666667| 0.281696666667     0.281696666667     0.648306666667|] Cmatrix=[0                  0                  0| 0                  0                  0| 0                  0                  0|]
New Line.165475_165476 Phases=3 bus1=165475.1.2.3 bus2=165476.1.2.3 Units=km Length=0.007630028 Rmatrix=[ 0.277543333333    0.0911333333333    0.0911333333333| 0.0911333333333     0.277543333333    0.0911333333333| 0.0911333333333    0.0911333333333     0.277543333333|] Xmatrix=[0.66072            0.26304            0.26304| 0.26304            0.66072            0.26304| 0.26304            0.26304            0.66072|] Cmatrix=[0                  0                  0| 0                  0                  0| 0                  0                  0|]
New Line.165476_165477 Phases=3 bus1=165476.1.2.3 bus2=165477.1.2.3 Units=km Length=0.03438013 Rmatrix=[ 0.8025            0.15355            0.15355| 0.15355             0.8025            0.15355| 0.15355            0.15355             0.8025|] Xmatrix=[0.886926666667     0.380036666667     0.380036666667| 0.380036666667     0.886926666667     0.380036666667| 0.380036666667     0.380036666667     0.886926666667|] Cmatrix=[0                  0                  0| 0                  0                  0| 0                  0                  0|]
New Line.273626_165475 Phases=3 bus1=273626.1.2.3 bus2=165475.1.2.3 Units=km Length=0.03761014 Rmatrix=[ 1.18886666667     0.138766666667     0.138766666667| 0.138766666667      1.18886666667     0.138766666667| 0.138766666667     0.138766666667      1.18886666667|] Xmatrix=[ 0.8865            0.36455            0.36455| 0.36455             0.8865            0.36455| 0.36455            0.36455             0.8865|] Cmatrix=[0                  0                  0| 0                  0                  0| 0                  0                  0|]
New Line.165469_165480 Phases=3 bus1=165469.1.2.3 bus2=165480.1.2.3 Units=km Length=0.04286016 Rmatrix=[0.192626           0.093207           0.093207| 0.093207           0.192626           0.093207| 0.093207           0.093207           0.192626|] Xmatrix=[0.648306666667     0.281696666667     0.281696666667| 0.281696666667     0.648306666667     0.281696666667| 0.281696666667     0.281696666667     0.648306666667|] Cmatrix=[0                  0                  0| 0                  0                  0| 0                  0                  0|]
New Line.165469_261836 Phases=3 bus1=165469.1.2.3 bus2=261836.1.2.3 Units=km Length=0.04623017 Rmatrix=[ 1.18886666667     0.138766666667     0.138766666666| 0.138766666667      1.18886666667     0.138766666667| 0.138766666666     0.138766666667      1.18886666667|] Xmatrix=[ 0.8865            0.36455            0.36455| 0.36455             0.8865            0.36455| 0.36455            0.36455             0.8865|] Cmatrix=[0                  0                  0| 0                  0                  0| 0                  0                  0|]
New Line.165469_287274 Phases=3 bus1=165469.1.2.3 bus2=287274.1.2.3 Units=km Length=0.04083015 Rmatrix=[ 1.18886666667     0.138766666667     0.138766666667| 0.138766666667      1.18886666667     0.138766666667| 0.138766666667     0.138766666667      1.18886666667|] Xmatrix=[ 0.8865            0.36455            0.36455| 0.36455             0.8865            0.36455| 0.36455            0.36455             0.8865|] Cmatrix=[0                  0                  0| 0                  0                  0| 0                  0                  0|]
New Line.165480_165478 Phases=3 bus1=165480.1.2.3 bus2=165478.1.2.3 Units=km Length=0.02972011 Rmatrix=[0.192626           0.093207           0.093207| 0.093207           0.192626           0.093207| 0.093207           0.093207           0.192626|] Xmatrix=[0.648306666667     0.281696666667     0.281696666667| 0.281696666667     0.648306666667     0.281696666667| 0.281696666667     0.281696666667     0.648306666667|] Cmatrix=[0                  0                  0| 0                  0                  0| 0                  0                  0|]
New Line.165478_165479 Phases=3 bus1=165478.1.2.3 bus2=165479.1.2.3 Units=km Length=0.03157012 Rmatrix=[0.192626           0.093207           0.093207| 0.093207           0.192626           0.093207| 0.093207           0.093207           0.192626|] Xmatrix=[0.648306666667     0.281696666667     0.281696666667| 0.281696666667     0.648306666667     0.281696666667| 0.281696666667     0.281696666667     0.648306666667|] Cmatrix=[0                  0                  0| 0                  0                  0| 0                  0                  0|]
New Line.165478_261838 Phases=3 bus1=165478.1.2.3 bus2=261838.1.2.3 Units=km Length=0.03473013 Rmatrix=[ 1.18886666667     0.138766666667     0.138766666667| 0.138766666667      1.18886666667     0.138766666667| 0.138766666667     0.138766666667      1.18886666667|] Xmatrix=[ 0.8865            0.36455            0.36455| 0.36455             0.8865            0.36455| 0.36455            0.36455             0.8865|] Cmatrix=[0                  0                  0| 0                  0                  0| 0                  0                  0|]
New Line.165479_165486 Phases=3 bus1=165479.1.2.3 bus2=165486.1.2.3 Units=km Length=0.04586017 Rmatrix=[ 1.18886666667     0.138766666667     0.138766666667| 0.138766666667      1.18886666667     0.138766666667| 0.138766666667     0.138766666667      1.18886666667|] Xmatrix=[ 0.8865            0.36455            0.36455| 0.36455             0.8865            0.36455| 0.36455            0.36455             0.8865|] Cmatrix=[0                  0                  0| 0                  0                  0| 0                  0                  0|]
New Line.165479_165487 Phases=3 bus1=165479.1.2.3 bus2=165487.1.2.3 Units=km Length=0.04628017 Rmatrix=[0.192626           0.093207           0.093207| 0.093207           0.192626           0.093207| 0.093207           0.093207           0.192626|] Xmatrix=[0.648306666667     0.281696666667     0.281696666667| 0.281696666667     0.648306666667     0.281696666667| 0.281696666667     0.281696666667     0.648306666667|] Cmatrix=[0                  0                  0| 0                  0                  0| 0                  0                  0|]
New Line.165483_165484 Phases=3 bus1=165483.1.2.3 bus2=165484.1.2.3 Units=km Length=0.02203008 Rmatrix=[ 0.8025            0.15355            0.15355| 0.15355             0.8025            0.15355| 0.15355            0.15355             0.8025|] Xmatrix=[0.886926666667     0.380036666667     0.380036666667| 0.380036666667     0.886926666667     0.380036666667| 0.380036666667     0.380036666667     0.886926666667|] Cmatrix=[0                  0                  0| 0                  0                  0| 0                  0                  0|]
New Line.261839_165483 Phases=3 bus1=261839.1.2.3 bus2=165483.1.2.3 Units=km Length=0.00526002 Rmatrix=[ 0.8025            0.15355            0.15355| 0.15355             0.8025            0.15355| 0.15355            0.15355             0.8025|] Xmatrix=[0.886926666667     0.380036666667     0.380036666667| 0.380036666667     0.886926666667     0.380036666667| 0.380036666667     0.380036666667     0.886926666667|] Cmatrix=[0                  0                  0| 0                  0                  0| 0                  0                  0|]
New Line.261838_261839 Phases=3 bus1=261838.1.2.3 bus2=261839.1.2.3 Units=km Length=0.007630028 Rmatrix=[ 0.277543333333    0.0911333333333    0.0911333333333| 0.0911333333333     0.277543333333    0.0911333333333| 0.0911333333333    0.0911333333333     0.277543333333|] Xmatrix=[0.66072            0.26304            0.26304| 0.26304            0.66072            0.26304| 0.26304            0.26304            0.66072|] Cmatrix=[0                  0                  0| 0                  0                  0| 0                  0                  0|]
New Line.165486_165485 Phases=3 bus1=165486.1.2.3 bus2=165485.1.2.3 Units=km Length=0.01835007 Rmatrix=[ 1.18886666667     0.138766666667     0.138766666667| 0.138766666667      1.18886666667     0.138766666667| 0.138766666667     0.138766666667      1.18886666667|] Xmatrix=[ 0.8865            0.36455            0.36455| 0.36455             0.8865            0.36455| 0.36455            0.36455             0.8865|] Cmatrix=[0                  0                  0| 0                  0                  0| 0                  0                  0|]
New Line.165487_165489 Phases=1 bus1=165487.1 bus2=165489.1 Units=km Length=0.04682018 Rmatrix=1.0501 Xmatrix=0.52195 Cmatrix=0
New Line.165487_283952 Phases=3 bus1=165487.1.2.3 bus2=283952.1.2.3 Units=km Length=0.0517402 Rmatrix=[0.192626           0.093207           0.093207| 0.093207           0.192626           0.093207| 0.093207           0.093207           0.192626|] Xmatrix=[0.648306666667     0.281696666667     0.281696666667| 0.281696666667     0.648306666667     0.281696666667| 0.281696666667     0.281696666667     0.648306666667|] Cmatrix=[0                  0                  0| 0                  0                  0| 0                  0                  0|]
New Line.165488_165491 Phases=1 bus1=165488.1 bus2=165491.1 Units=km Length=0.0278401 Rmatrix=1.0501 Xmatrix=0.52195 Cmatrix=0
New Line.165489_165488 Phases=1 bus1=165489.1 bus2=165488.1 Units=km Length=0.007630028 Rmatrix=0.18641 Xmatrix=0.39768 Cmatrix=0
New Line.165491_165490 Phases=1 bus1=165491.1 bus2=165490.1 Units=km Length=0.04830018 Rmatrix=1.0501 Xmatrix=0.52195 Cmatrix=0
New Line.165490_165494 Phases=1 bus1=165490.1 bus2=165494.1 Units=km Length=0.07238026 Rmatrix=1.0501 Xmatrix=0.52195 Cmatrix=0
New Line.165490_165492 Phases=1 bus1=165490.1 bus2=165492.1 Units=km Length=0.1778307 Rmatrix=1.0501 Xmatrix=0.52195 Cmatrix=0
New Line.165494_165493 Phases=1 bus1=165494.1 bus2=165493.1 Units=km Length=0.1107904 Rmatrix=1.0501 Xmatrix=0.52195 Cmatrix=0
New Line.283952_165495 Phases=3 bus1=283952.1.2.3 bus2=165495.1.2.3 Units=km Length=0.1047904 Rmatrix=[0.192626           0.093207           0.093207| 0.093207           0.192626           0.093207| 0.093207           0.093207           0.192626|] Xmatrix=[0.648306666667     0.281696666667     0.281696666667| 0.281696666667     0.648306666667     0.281696666667| 0.281696666667     0.281696666667     0.648306666667|] Cmatrix=[0                  0                  0| 0                  0                  0| 0                  0                  0|]
New Line.283952_283954 Phases=3 bus1=283952.1.2.3 bus2=283954.1.2.3 Units=km Length=0.0516502 Rmatrix=[ 1.18886666667     0.138766666666     0.138766666667| 0.138766666666      1.18886666667     0.138766666666| 0.138766666667     0.138766666666      1.18886666667|] Xmatrix=[ 0.8865            0.36455            0.36455| 0.36455             0.8865            0.36455| 0.36455            0.36455             0.8865|] Cmatrix=[0                  0                  0| 0                  0                  0| 0                  0                  0|]
New Line.165500_165501 Phases=3 bus1=165500.1.2.3 bus2=165501.1.2.3 Units=km Length=0.007470027 Rmatrix=[ 0.277543333333    0.0911333333333    0.0911333333333| 0.0911333333333     0.277543333333    0.0911333333333| 0.0911333333333    0.0911333333333     0.277543333333|] Xmatrix=[0.66072            0.26304            0.26304| 0.26304            0.66072            0.26304| 0.26304            0.26304            0.66072|] Cmatrix=[0                  0                  0| 0                  0                  0| 0                  0                  0|]
New Line.165501_165503 Phases=3 bus1=165501.1.2.3 bus2=165503.1.2.3 Units=km Length=0.0546002 Rmatrix=[ 0.8025            0.15355            0.15355| 0.15355             0.8025            0.15355| 0.15355            0.15355             0.8025|] Xmatrix=[0.886926666667     0.380036666667     0.380036666667| 0.380036666667     0.886926666667     0.380036666667| 0.380036666667     0.380036666667     0.886926666667|] Cmatrix=[0                  0                  0| 0                  0                  0| 0                  0                  0|]
New Line.165495_165500 Phases=3 bus1=165495.1.2.3 bus2=165500.1.2.3 Units=km Length=0.01282005 Rmatrix=[ 1.18886666667     0.138766666667     0.138766666667| 0.138766666667      1.18886666667     0.138766666667| 0.138766666667     0.138766666667      1.18886666667|] Xmatrix=[ 0.8865            0.36455            0.36455| 0.36455             0.8865            0.36455| 0.36455            0.36455             0.8865|] Cmatrix=[0                  0                  0| 0                  0                  0| 0                  0                  0|]
New Line.165495_165504 Phases=3 bus1=165495.1.2.3 bus2=165504.1.2.3 Units=km Length=0.2925211 Rmatrix=[ 1.18886666667     0.138766666667     0.138766666667| 0.138766666667      1.18886666667     0.138766666667| 0.138766666667     0.138766666667      1.18886666667|] Xmatrix=[0.886500000001            0.36455            0.36455|        0.36455             0.8865            0.36455|        0.36455            0.36455     0.886499999999|] Cmatrix=[0                  0                  0| 0                  0                  0| 0                  0                  0|]
New Line.165504_181968 Phases=3 bus1=165504.1.2.3 bus2=181968.1.2.3 Units=km Length=0.1477505 Rmatrix=[       0.192626    0.0932070000001           0.093207| 0.0932070000001           0.192626           0.093207|        0.093207           0.093207           0.192626|] Xmatrix=[0.648306666667     0.281696666667     0.281696666667| 0.281696666667     0.648306666666     0.281696666667| 0.281696666667     0.281696666667     0.648306666667|] Cmatrix=[0                  0                  0| 0                  0                  0| 0                  0                  0|]
New Line.165504_261881 Phases=3 bus1=165504.1.2.3 bus2=261881.1.2.3 Units=km Length=0.03052011 Rmatrix=[0.192626           0.093207           0.093207| 0.093207           0.192626           0.093207| 0.093207           0.093207           0.192626|] Xmatrix=[0.648306666667     0.281696666666     0.281696666667| 0.281696666666     0.648306666666     0.281696666667| 0.281696666667     0.281696666667     0.648306666666|] Cmatrix=[0                  0                  0| 0                  0                  0| 0                  0                  0|]
New Line.181883_158676 Phases=3 bus1=181883.1.2.3 bus2=158676.1.2.3 Units=km Length=0.5749122 Rmatrix=[0.192626           0.093207           0.093207| 0.093207           0.192626           0.093207| 0.093207           0.093207           0.192626|] Xmatrix=[0.648306666667     0.281696666667     0.281696666667| 0.281696666667     0.648306666667     0.281696666667| 0.281696666667     0.281696666667     0.648306666667|] Cmatrix=[0                  0                  0| 0                  0                  0| 0                  0                  0|]
New Line.181883_255322 Phases=3 bus1=181883.1.2.3 bus2=255322.1.2.3 Units=km Length=0.04223016 Rmatrix=[ 1.18886666667     0.138766666667     0.138766666667| 0.138766666667      1.18886666667     0.138766666667| 0.138766666667     0.138766666667      1.18886666667|] Xmatrix=[ 0.8865            0.36455            0.36455| 0.36455             0.8865            0.36455| 0.36455            0.36455             0.8865|] Cmatrix=[0                  0                  0| 0                  0                  0| 0                  0                  0|]
New Line.181889_181890 Phases=3 bus1=181889.1.2.3 bus2=181890.1.2.3 Units=km Length=0.008000031 Rmatrix=[ 0.277543333333    0.0911333333333    0.0911333333334| 0.0911333333333     0.277543333333    0.0911333333333| 0.0911333333334    0.0911333333333     0.277543333333|] Xmatrix=[0.66072            0.26304            0.26304| 0.26304            0.66072            0.26304| 0.26304            0.26304            0.66072|] Cmatrix=[0                  0                  0| 0                  0                  0| 0                  0                  0|]
New Line.181890_181893 Phases=3 bus1=181890.1.2.3 bus2=181893.1.2.3 Units=km Length=0.006460024 Rmatrix=[ 0.8025            0.15355            0.15355| 0.15355             0.8025            0.15355| 0.15355            0.15355             0.8025|] Xmatrix=[0.886926666667     0.380036666667     0.380036666667| 0.380036666667     0.886926666667     0.380036666667| 0.380036666667     0.380036666667     0.886926666667|] Cmatrix=[0                  0                  0| 0                  0                  0| 0                  0                  0|]
New Line.181891_181892 Phases=3 bus1=181891.1.2.3 bus2=181892.1.2.3 Units=km Length=0.007530029 Rmatrix=[ 0.277543333333    0.0911333333333    0.0911333333333| 0.0911333333333     0.277543333333    0.0911333333333| 0.0911333333333    0.0911333333333     0.277543333333|] Xmatrix=[0.66072            0.26304            0.26304| 0.26304            0.66072            0.26304| 0.26304            0.26304            0.66072|] Cmatrix=[0                  0                  0| 0                  0                  0| 0                  0                  0|]
New Line.181892_181898 Phases=1 bus1=181892.1 bus2=181898.1 Units=km Length=0.07616029 Rmatrix=0.69882 Xmatrix=0.18701 Cmatrix=0
New Line.181892_181910 Phases=1 bus1=181892.2 bus2=181910.2 Units=km Length=0.1784707 Rmatrix=0.69882 Xmatrix=0.18701 Cmatrix=0
New Line.181892_181908 Phases=1 bus1=181892.3 bus2=181908.3 Units=km Length=0.02472009 Rmatrix=0.69882 Xmatrix=0.18701 Cmatrix=0
New Line.181884_181886 Phases=3 bus1=181884.1.2.3 bus2=181886.1.2.3 Units=km Length=0.01466006 Rmatrix=[ 1.18886666667     0.138766666667     0.138766666667| 0.138766666667      1.18886666667     0.138766666667| 0.138766666667     0.138766666667      1.18886666667|] Xmatrix=[ 0.8865            0.36455            0.36455| 0.36455             0.8865            0.36455| 0.36455            0.36455             0.8865|] Cmatrix=[0                  0                  0| 0                  0                  0| 0                  0                  0|]
New Line.181886_181889 Phases=3 bus1=181886.1.2.3 bus2=181889.1.2.3 Units=km Length=0.006460024 Rmatrix=[ 1.18886666667     0.138766666667     0.138766666667| 0.138766666667      1.18886666667     0.138766666667| 0.138766666667     0.138766666667      1.18886666667|] Xmatrix=[ 0.8865            0.36455            0.36455| 0.36455             0.8865            0.36455| 0.36455            0.36455             0.8865|] Cmatrix=[0                  0                  0| 0                  0                  0| 0                  0                  0|]
New Line.181886_181888 Phases=3 bus1=181886.1.2.3 bus2=181888.1.2.3 Units=km Length=0.04545017 Rmatrix=[ 1.18886666667     0.138766666667     0.138766666667| 0.138766666667      1.18886666667     0.138766666667| 0.138766666667     0.138766666667      1.18886666667|] Xmatrix=[0.886499999999            0.36455            0.36455|        0.36455     0.886499999999            0.36455|        0.36455            0.36455             0.8865|] Cmatrix=[0                  0                  0| 0                  0                  0| 0                  0                  0|]
New Line.181888_181885 Phases=3 bus1=181888.1.2.3 bus2=181885.1.2.3 Units=km Length=0.04611017 Rmatrix=[0.737340000001            0.14083            0.14083|        0.14083            0.73734            0.14083|        0.14083            0.14083            0.73734|] Xmatrix=[0.830553333333     0.364523333333     0.364523333333| 0.364523333333     0.830553333334     0.364523333333| 0.364523333333     0.364523333333     0.830553333333|] Cmatrix=[0                  0                  0| 0                  0                  0| 0                  0                  0|]
New Line.181885_181887 Phases=3 bus1=181885.1.2.3 bus2=181887.1.2.3 Units=km Length=0.005790021 Rmatrix=[0.73734            0.14083            0.14083| 0.14083            0.73734            0.14083| 0.14083            0.14083            0.73734|] Xmatrix=[0.830553333334     0.364523333333     0.364523333333| 0.364523333333     0.830553333333     0.364523333333| 0.364523333333     0.364523333333     0.830553333333|] Cmatrix=[0                  0                  0| 0                  0                  0| 0                  0                  0|]
New Line.181887_181891 Phases=3 bus1=181887.1.2.3 bus2=181891.1.2.3 Units=km Length=0.01682006 Rmatrix=[0.737340000001     0.140830000001            0.14083| 0.140830000001     0.737339999999            0.14083|        0.14083            0.14083     0.737339999999|] Xmatrix=[0.830553333333     0.364523333334     0.364523333333| 0.364523333334     0.830553333333     0.364523333333| 0.364523333333     0.364523333333     0.830553333334|] Cmatrix=[0                  0                  0| 0                  0                  0| 0                  0                  0|]
New Line.181887_181894 Phases=3 bus1=181887.1.2.3 bus2=181894.1.2.3 Units=km Length=0.09093034 Rmatrix=[0.73734            0.14083            0.14083| 0.14083            0.73734            0.14083| 0.14083            0.14083            0.73734|] Xmatrix=[0.830553333333     0.364523333334     0.364523333333| 0.364523333334     0.830553333333     0.364523333333| 0.364523333333     0.364523333333     0.830553333333|] Cmatrix=[0                  0                  0| 0                  0                  0| 0                  0                  0|]
New Line.181894_181895 Phases=3 bus1=181894.1.2.3 bus2=181895.1.2.3 Units=km Length=0.03605014 Rmatrix=[0.73734            0.14083            0.14083| 0.14083            0.73734            0.14083| 0.14083            0.14083            0.73734|] Xmatrix=[0.830553333333     0.364523333333     0.364523333333| 0.364523333333     0.830553333333     0.364523333333| 0.364523333333     0.364523333333     0.830553333333|] Cmatrix=[0                  0                  0| 0                  0                  0| 0                  0                  0|]
New Line.181895_181896 Phases=3 bus1=181895.1.2.3 bus2=181896.1.2.3 Units=km Length=0.007620028 Rmatrix=[ 0.277543333333    0.0911333333333    0.0911333333333| 0.0911333333333     0.277543333333    0.0911333333333| 0.0911333333333    0.0911333333333     0.277543333333|] Xmatrix=[0.66072            0.26304            0.26304| 0.26304            0.66072            0.26304| 0.26304            0.26304            0.66072|] Cmatrix=[0                  0                  0| 0                  0                  0| 0                  0                  0|]
New Line.181896_181897 Phases=3 bus1=181896.1.2.3 bus2=181897.1.2.3 Units=km Length=0.01311005 Rmatrix=[ 0.8025            0.15355            0.15355| 0.15355             0.8025            0.15355| 0.15355            0.15355             0.8025|] Xmatrix=[0.886926666667     0.380036666667     0.380036666667| 0.380036666667     0.886926666667     0.380036666667| 0.380036666667     0.380036666667     0.886926666667|] Cmatrix=[0                  0                  0| 0                  0                  0| 0                  0                  0|]
New Line.181898_181899 Phases=1 bus1=181898.1 bus2=181899.1 Units=km Length=0.06865026 Rmatrix=0.69882 Xmatrix=0.18701 Cmatrix=0
New Line.181899_181900 Phases=1 bus1=181899.1 bus2=181900.1 Units=km Length=0.02043008 Rmatrix=0.69882 Xmatrix=0.18701 Cmatrix=0
New Line.181900_181901 Phases=1 bus1=181900.1 bus2=181901.1 Units=km Length=0.03478013 Rmatrix=0.69882 Xmatrix=0.18701 Cmatrix=0
New Line.181901_181902 Phases=1 bus1=181901.1 bus2=181902.1 Units=km Length=0.0530702 Rmatrix=0.69882 Xmatrix=0.18701 Cmatrix=0
New Line.181908_181903 Phases=1 bus1=181908.3 bus2=181903.3 Units=km Length=0.005800022 Rmatrix=0.69882 Xmatrix=0.18701 Cmatrix=0
New Line.181908_181904 Phases=1 bus1=181908.3 bus2=181904.3 Units=km Length=0.02139008 Rmatrix=0.69882 Xmatrix=0.18701 Cmatrix=0
New Line.181908_181905 Phases=1 bus1=181908.3 bus2=181905.3 Units=km Length=0.05091019 Rmatrix=0.69882 Xmatrix=0.18701 Cmatrix=0
New Line.181905_181909 Phases=1 bus1=181905.3 bus2=181909.3 Units=km Length=0.02051008 Rmatrix=0.69882 Xmatrix=0.18701 Cmatrix=0
New Line.181909_181907 Phases=1 bus1=181909.3 bus2=181907.3 Units=km Length=0.009150034 Rmatrix=0.69882 Xmatrix=0.18701 Cmatrix=0
New Line.181909_181906 Phases=1 bus1=181909.3 bus2=181906.3 Units=km Length=0.01599006 Rmatrix=0.69882 Xmatrix=0.18701 Cmatrix=0
New Line.181910_181911 Phases=1 bus1=181910.2 bus2=181911.2 Units=km Length=0.03985015 Rmatrix=0.69882 Xmatrix=0.18701 Cmatrix=0
New Line.181911_181916 Phases=1 bus1=181911.2 bus2=181916.2 Units=km Length=0.05936022 Rmatrix=0.69882 Xmatrix=0.18701 Cmatrix=0
New Line.181916_181915 Phases=1 bus1=181916.2 bus2=181915.2 Units=km Length=0.04819018 Rmatrix=0.69882 Xmatrix=0.18701 Cmatrix=0
New Line.181916_181912 Phases=1 bus1=181916.2 bus2=181912.2 Units=km Length=0.02228008 Rmatrix=0.69882 Xmatrix=0.18701 Cmatrix=0
New Line.181912_181913 Phases=1 bus1=181912.2 bus2=181913.2 Units=km Length=0.04726017 Rmatrix=0.69882 Xmatrix=0.18701 Cmatrix=0
New Line.181913_181914 Phases=1 bus1=181913.2 bus2=181914.2 Units=km Length=0.005790021 Rmatrix=0.69882 Xmatrix=0.18701 Cmatrix=0
New Line.181917_181883 Phases=3 bus1=181917.1.2.3 bus2=181883.1.2.3 Units=km Length=0.4136915 Rmatrix=[       0.192626    0.0932069999999    0.0932070000002| 0.0932069999999           0.192626    0.0932070000001| 0.0932070000002    0.0932070000001           0.192626|] Xmatrix=[0.648306666666     0.281696666667     0.281696666667| 0.281696666667     0.648306666667     0.281696666667| 0.281696666667     0.281696666667     0.648306666666|] Cmatrix=[0                  0                  0| 0                  0                  0| 0                  0                  0|]
New Line.181917_181920 Phases=3 bus1=181917.1.2.3 bus2=181920.1.2.3 Units=km Length=0.01067004 Rmatrix=[0.192626           0.093207           0.093207| 0.093207           0.192626           0.093207| 0.093207           0.093207           0.192626|] Xmatrix=[0.648306666667     0.281696666667     0.281696666667| 0.281696666667     0.648306666667     0.281696666667| 0.281696666667     0.281696666667     0.648306666667|] Cmatrix=[0                  0                  0| 0                  0                  0| 0                  0                  0|]
New Line.181918_181917 Phases=3 bus1=181918.1.2.3 bus2=181917.1.2.3 Units=km Length=0.01592006 Rmatrix=[0.192626           0.093207           0.093207| 0.093207           0.192626           0.093207| 0.093207           0.093207           0.192626|] Xmatrix=[0.648306666666     0.281696666667     0.281696666667| 0.281696666667     0.648306666667     0.281696666667| 0.281696666667     0.281696666667     0.648306666667|] Cmatrix=[0                  0                  0| 0                  0                  0| 0                  0                  0|]
New Line.181918_181925 Phases=3 bus1=181918.1.2.3 bus2=181925.1.2.3 Units=km Length=0.05617021 Rmatrix=[       0.192626    0.0932070000004    0.0932069999998| 0.0932070000004           0.192626           0.093207| 0.0932069999998           0.093207           0.192626|] Xmatrix=[0.648306666666     0.281696666667     0.281696666667| 0.281696666667     0.648306666666     0.281696666667| 0.281696666667     0.281696666667     0.648306666665|] Cmatrix=[0                  0                  0| 0                  0                  0| 0                  0                  0|]
New Line.181919_181918 Phases=3 bus1=181919.1.2.3 bus2=181918.1.2.3 Units=km Length=0.03313012 Rmatrix=[       0.192626    0.0932070000001           0.093207| 0.0932070000001           0.192626           0.093207|        0.093207           0.093207           0.192626|] Xmatrix=[0.648306666666     0.281696666667     0.281696666667| 0.281696666667     0.648306666667     0.281696666667| 0.281696666667     0.281696666667     0.648306666667|] Cmatrix=[0                  0                  0| 0                  0                  0| 0                  0                  0|]
New Line.181919_152566 Phases=3 bus1=181919.1.2.3 bus2=152566.1.2.3 Units=km Length=0.04830018 Rmatrix=[0.192626           0.093207           0.093207| 0.093207           0.192626           0.093207| 0.093207           0.093207           0.192626|] Xmatrix=[0.648306666667     0.281696666667     0.281696666667| 0.281696666667     0.648306666667     0.281696666667| 0.281696666667     0.281696666667     0.648306666667|] Cmatrix=[0                  0                  0| 0                  0                  0| 0                  0                  0|]
New Line.181919_181924 Phases=3 bus1=181919.1.2.3 bus2=181924.1.2.3 Units=km Length=0.01569006 Rmatrix=[0.192626           0.093207           0.093207| 0.093207           0.192626           0.093207| 0.093207           0.093207           0.192626|] Xmatrix=[0.648306666667     0.281696666667     0.281696666667| 0.281696666667     0.648306666667     0.281696666667| 0.281696666667     0.281696666667     0.648306666667|] Cmatrix=[0                  0                  0| 0                  0                  0| 0                  0                  0|]
New Line.181925_181926 Phases=3 bus1=181925.1.2.3 bus2=181926.1.2.3 Units=km Length=0.007020026 Rmatrix=[0.192626           0.093207           0.093207| 0.093207           0.192626           0.093207| 0.093207           0.093207           0.192626|] Xmatrix=[0.648306666667     0.281696666667     0.281696666667| 0.281696666667     0.648306666667     0.281696666667| 0.281696666667     0.281696666667     0.648306666667|] Cmatrix=[0                  0                  0| 0                  0                  0| 0                  0                  0|]
New Line.181925_181928 Phases=3 bus1=181925.1.2.3 bus2=181928.1.2.3 Units=km Length=0.01459006 Rmatrix=[       0.192626    0.0932070000001           0.093207| 0.0932070000001           0.192626    0.0932069999999|        0.093207    0.0932069999999           0.192626|] Xmatrix=[0.648306666666     0.281696666667     0.281696666667| 0.281696666667     0.648306666667     0.281696666667| 0.281696666667     0.281696666667     0.648306666667|] Cmatrix=[0                  0                  0| 0                  0                  0| 0                  0                  0|]
New Line.181926_181927 Phases=3 bus1=181926.1.2.3 bus2=181927.1.2.3 Units=km Length=0.008250031 Rmatrix=[0.192626           0.093207           0.093207| 0.093207           0.192626           0.093207| 0.093207           0.093207           0.192626|] Xmatrix=[0.648306666667     0.281696666667     0.281696666667| 0.281696666667     0.648306666667     0.281696666667| 0.281696666667     0.281696666667     0.648306666667|] Cmatrix=[0                  0                  0| 0                  0                  0| 0                  0                  0|]
New Line.181926_181993 Phases=3 bus1=181926.1.2.3 bus2=181993.1.2.3 Units=km Length=0.1186904 Rmatrix=[0.192626           0.093207           0.093207| 0.093207           0.192626           0.093207| 0.093207           0.093207           0.192626|] Xmatrix=[0.648306666667     0.281696666667     0.281696666667| 0.281696666667     0.648306666667     0.281696666667| 0.281696666667     0.281696666667     0.648306666666|] Cmatrix=[0                  0                  0| 0                  0                  0| 0                  0                  0|]
New Line.181927_181937 Phases=3 bus1=181927.1.2.3 bus2=181937.1.2.3 Units=km Length=0.00824003 Rmatrix=[ 1.18886666667     0.138766666667     0.138766666667| 0.138766666667      1.18886666667     0.138766666667| 0.138766666667     0.138766666667      1.18886666667|] Xmatrix=[ 0.8865            0.36455            0.36455| 0.36455             0.8865            0.36455| 0.36455            0.36455             0.8865|] Cmatrix=[0                  0                  0| 0                  0                  0| 0                  0                  0|]
New Line.181928_181985 Phases=3 bus1=181928.1.2.3 bus2=181985.1.2.3 Units=km Length=0.04466017 Rmatrix=[ 1.18886666667     0.138766666667     0.138766666667| 0.138766666667      1.18886666667     0.138766666667| 0.138766666667     0.138766666667      1.18886666667|] Xmatrix=[ 0.8865            0.36455            0.36455| 0.36455     0.886499999999            0.36455| 0.36455            0.36455             0.8865|] Cmatrix=[0                  0                  0| 0                  0                  0| 0                  0                  0|]
New Line.181933_181934 Phases=1 bus1=181933.3 bus2=181934.3 Units=km Length=0.007630028 Rmatrix=0.18641 Xmatrix=0.39768 Cmatrix=0
New Line.181934_181958 Phases=1 bus1=181934.3 bus2=181958.3 Units=km Length=0.04915018 Rmatrix=0.69882 Xmatrix=0.18701 Cmatrix=0
New Line.255317_255318 Phases=3 bus1=255317.1.2.3 bus2=255318.1.2.3 Units=km Length=0.001 Rmatrix=[1                  0                  0| 0     0.999999999999                  0| 0                  0                  1|] Xmatrix=[1                  0                  0| 0                  1                  0| 0                  0     0.999999999999|] Cmatrix=[0                  0                  0| 0                  0                  0| 0                  0                  0|]
New Line.181929_255317 Phases=3 bus1=181929.1.2.3 bus2=255317.1.2.3 Units=km Length=0.08240031 Rmatrix=[ 0.192626000002    0.0932070000011    0.0932070000012| 0.0932070000011     0.192626000002    0.0932070000015| 0.0932070000012    0.0932070000015     0.192626000003|] Xmatrix=[0.648306666662     0.281696666665     0.281696666664| 0.281696666665     0.648306666668     0.281696666664| 0.281696666664     0.281696666664     0.648306666662|] Cmatrix=[0                  0                  0| 0                  0                  0| 0                  0                  0|]
New Line.181929_255418 Phases=3 bus1=181929.1.2.3 bus2=255418.1.2.3 Units=km Length=0.01006004 Rmatrix=[0.192626           0.093207           0.093207| 0.093207           0.192626           0.093207| 0.093207           0.093207           0.192626|] Xmatrix=[0.648306666667     0.281696666667     0.281696666667| 0.281696666667     0.648306666667     0.281696666667| 0.281696666667     0.281696666667     0.648306666666|] Cmatrix=[0                  0                  0| 0                  0                  0| 0                  0                  0|]
New Line.181936_181929 Phases=3 bus1=181936.1.2.3 bus2=181929.1.2.3 Units=km Length=0.04521017 Rmatrix=[0.192626           0.093207           0.093207| 0.093207           0.192626           0.093207| 0.093207           0.093207           0.192626|] Xmatrix=[0.648306666667     0.281696666667     0.281696666667| 0.281696666667     0.648306666667     0.281696666667| 0.281696666667     0.281696666667     0.648306666667|] Cmatrix=[0                  0                  0| 0                  0                  0| 0                  0                  0|]
New Line.181932_181936 Phases=3 bus1=181932.1.2.3 bus2=181936.1.2.3 Units=km Length=0.03430013 Rmatrix=[0.192626           0.093207           0.093207| 0.093207           0.192626           0.093207| 0.093207           0.093207           0.192626|] Xmatrix=[0.648306666667     0.281696666667     0.281696666667| 0.281696666667     0.648306666667     0.281696666667| 0.281696666667     0.281696666667     0.648306666667|] Cmatrix=[0                  0                  0| 0                  0                  0| 0                  0                  0|]
New Line.181932_236965 Phases=1 bus1=181932.1 bus2=236965.1 Units=km Length=0.006430024 Rmatrix=1.0501 Xmatrix=0.52195 Cmatrix=0
New Line.181932_181933 Phases=1 bus1=181932.3 bus2=181933.3 Units=km Length=0.01466006 Rmatrix=1.0501 Xmatrix=0.52195 Cmatrix=0
New Line.181939_181941 Phases=3 bus1=181939.1.2.3 bus2=181941.1.2.3 Units=km Length=0.006130023 Rmatrix=[ 0.8025            0.15355            0.15355| 0.15355             0.8025            0.15355| 0.15355            0.15355             0.8025|] Xmatrix=[0.886926666667     0.380036666667     0.380036666667| 0.380036666667     0.886926666667     0.380036666667| 0.380036666667     0.380036666667     0.886926666667|] Cmatrix=[0                  0                  0| 0                  0                  0| 0                  0                  0|]
New Line.181940_181939 Phases=3 bus1=181940.1.2.3 bus2=181939.1.2.3 Units=km Length=0.007720029 Rmatrix=[ 0.277543333333    0.0911333333333    0.0911333333333| 0.0911333333333     0.277543333333    0.0911333333333| 0.0911333333333    0.0911333333333     0.277543333333|] Xmatrix=[0.66072            0.26304            0.26304| 0.26304            0.66072            0.26304| 0.26304            0.26304            0.66072|] Cmatrix=[0                  0                  0| 0                  0                  0| 0                  0                  0|]
New Line.181937_181938 Phases=3 bus1=181937.1.2.3 bus2=181938.1.2.3 Units=km Length=0.05845022 Rmatrix=[ 1.18886666667     0.138766666667     0.138766666667| 0.138766666667      1.18886666667     0.138766666667| 0.138766666667     0.138766666667      1.18886666667|] Xmatrix=[ 0.8865            0.36455            0.36455| 0.36455             0.8865            0.36455| 0.36455            0.36455             0.8865|] Cmatrix=[0                  0                  0| 0                  0                  0| 0                  0                  0|]
New Line.181938_181940 Phases=3 bus1=181938.1.2.3 bus2=181940.1.2.3 Units=km Length=0.02244008 Rmatrix=[ 1.18886666667     0.138766666667     0.138766666667| 0.138766666667      1.18886666667     0.138766666667| 0.138766666667     0.138766666667      1.18886666667|] Xmatrix=[ 0.8865            0.36455            0.36455| 0.36455             0.8865            0.36455| 0.36455            0.36455             0.8865|] Cmatrix=[0                  0                  0| 0                  0                  0| 0                  0                  0|]
New Line.181943_181944 Phases=1 bus1=181943.3 bus2=181944.3 Units=km Length=0.007640028 Rmatrix=0.18641 Xmatrix=0.39768 Cmatrix=0
New Line.181944_181957 Phases=1 bus1=181944.3 bus2=181957.3 Units=km Length=0.1173904 Rmatrix=0.69882 Xmatrix=0.18701 Cmatrix=0
New Line.181945_181932 Phases=3 bus1=181945.1.2.3 bus2=181932.1.2.3 Units=km Length=0.03928015 Rmatrix=[0.192626           0.093207           0.093207| 0.093207           0.192626           0.093207| 0.093207           0.093207           0.192626|] Xmatrix=[0.648306666667     0.281696666667     0.281696666667| 0.281696666667     0.648306666667     0.281696666667| 0.281696666667     0.281696666667     0.648306666667|] Cmatrix=[0                  0                  0| 0                  0                  0| 0                  0                  0|]
New Line.181942_181945 Phases=3 bus1=181942.1.2.3 bus2=181945.1.2.3 Units=km Length=0.04063015 Rmatrix=[0.192626           0.093207           0.093207| 0.093207           0.192626           0.093207| 0.093207           0.093207           0.192626|] Xmatrix=[0.648306666667     0.281696666667     0.281696666667| 0.281696666667     0.648306666667     0.281696666667| 0.281696666667     0.281696666667     0.648306666667|] Cmatrix=[0                  0                  0| 0                  0                  0| 0                  0                  0|]
New Line.181942_236963 Phases=1 bus1=181942.1 bus2=236963.1 Units=km Length=0.01524006 Rmatrix=1.0501 Xmatrix=0.52195 Cmatrix=0
New Line.181942_181943 Phases=1 bus1=181942.3 bus2=181943.3 Units=km Length=0.01042004 Rmatrix=1.0501 Xmatrix=0.52195 Cmatrix=0
New Line.236964_181946 Phases=1 bus1=236964.1 bus2=181946.1 Units=km Length=0.06619025 Rmatrix=0.69882 Xmatrix=0.18701 Cmatrix=0
New Line.181946_181953 Phases=1 bus1=181946.1 bus2=181953.1 Units=km Length=0.08201031 Rmatrix=0.69882 Xmatrix=0.18701 Cmatrix=0
New Line.181946_181947 Phases=1 bus1=181946.1 bus2=181947.1 Units=km Length=0.01372005 Rmatrix=0.69882 Xmatrix=0.18701 Cmatrix=0
New Line.181947_181950 Phases=1 bus1=181947.1 bus2=181950.1 Units=km Length=0.01620006 Rmatrix=0.69882 Xmatrix=0.18701 Cmatrix=0
New Line.181947_181948 Phases=1 bus1=181947.1 bus2=181948.1 Units=km Length=0.0262101 Rmatrix=0.69882 Xmatrix=0.18701 Cmatrix=0
New Line.181948_181951 Phases=1 bus1=181948.1 bus2=181951.1 Units=km Length=0.009150034 Rmatrix=0.69882 Xmatrix=0.18701 Cmatrix=0
New Line.181948_181952 Phases=1 bus1=181948.1 bus2=181952.1 Units=km Length=0.008540031 Rmatrix=0.69882 Xmatrix=0.18701 Cmatrix=0
New Line.181949_181954 Phases=1 bus1=181949.1 bus2=181954.1 Units=km Length=0.01159004 Rmatrix=0.69882 Xmatrix=0.18701 Cmatrix=0
New Line.181949_181955 Phases=1 bus1=181949.1 bus2=181955.1 Units=km Length=0.01559006 Rmatrix=0.69882 Xmatrix=0.18701 Cmatrix=0
New Line.181956_181949 Phases=1 bus1=181956.1 bus2=181949.1 Units=km Length=0.04058015 Rmatrix=0.69882 Xmatrix=0.18701 Cmatrix=0
New Line.236966_181956 Phases=1 bus1=236966.1 bus2=181956.1 Units=km Length=0.1178604 Rmatrix=0.69882 Xmatrix=0.18701 Cmatrix=0
New Line.181957_181963 Phases=1 bus1=181957.3 bus2=181963.3 Units=km Length=0.08888033 Rmatrix=0.69882 Xmatrix=0.18701 Cmatrix=0
New Line.181958_181967 Phases=1 bus1=181958.3 bus2=181967.3 Units=km Length=0.1100404 Rmatrix=0.69882 Xmatrix=0.18701 Cmatrix=0
New Line.181967_181966 Phases=1 bus1=181967.3 bus2=181966.3 Units=km Length=0.04976019 Rmatrix=0.69882 Xmatrix=0.18701 Cmatrix=0
New Line.181966_181965 Phases=1 bus1=181966.3 bus2=181965.3 Units=km Length=0.09034033 Rmatrix=0.69882 Xmatrix=0.18701 Cmatrix=0
New Line.181965_181959 Phases=1 bus1=181965.3 bus2=181959.3 Units=km Length=0.06349024 Rmatrix=0.69882 Xmatrix=0.18701 Cmatrix=0
New Line.181963_181964 Phases=1 bus1=181963.3 bus2=181964.3 Units=km Length=0.01402005 Rmatrix=0.69882 Xmatrix=0.18701 Cmatrix=0
New Line.181964_181960 Phases=1 bus1=181964.3 bus2=181960.3 Units=km Length=0.01524006 Rmatrix=0.69882 Xmatrix=0.18701 Cmatrix=0
New Line.181964_181961 Phases=1 bus1=181964.3 bus2=181961.3 Units=km Length=0.01646006 Rmatrix=0.69882 Xmatrix=0.18701 Cmatrix=0
New Line.181961_181962 Phases=1 bus1=181961.3 bus2=181962.3 Units=km Length=0.0272601 Rmatrix=0.69882 Xmatrix=0.18701 Cmatrix=0
New Line.181969_181979 Phases=3 bus1=181969.1.2.3 bus2=181979.1.2.3 Units=km Length=0.03625013 Rmatrix=[ 1.18886666667     0.138766666667     0.138766666667| 0.138766666667      1.18886666667     0.138766666667| 0.138766666667     0.138766666667      1.18886666667|] Xmatrix=[0.886499999999            0.36455            0.36455|        0.36455             0.8865            0.36455|        0.36455            0.36455             0.8865|] Cmatrix=[0                  0                  0| 0                  0                  0| 0                  0                  0|]
New Line.181970_181969 Phases=3 bus1=181970.1.2.3 bus2=181969.1.2.3 Units=km Length=0.007320028 Rmatrix=[ 0.277543333333    0.0911333333333    0.0911333333333| 0.0911333333333     0.277543333333    0.0911333333333| 0.0911333333333    0.0911333333333     0.277543333333|] Xmatrix=[0.66072            0.26304            0.26304| 0.26304            0.66072            0.26304| 0.26304            0.26304            0.66072|] Cmatrix=[0                  0                  0| 0                  0                  0| 0                  0                  0|]
New Line.181971_181972 Phases=3 bus1=181971.1.2.3 bus2=181972.1.2.3 Units=km Length=0.007640028 Rmatrix=[ 0.277543333333    0.0911333333333    0.0911333333333| 0.0911333333333     0.277543333333    0.0911333333333| 0.0911333333333    0.0911333333333     0.277543333333|] Xmatrix=[0.66072            0.26304            0.26304| 0.26304            0.66072            0.26304| 0.26304            0.26304            0.66072|] Cmatrix=[0                  0                  0| 0                  0                  0| 0                  0                  0|]
New Line.181972_181981 Phases=3 bus1=181972.1.2.3 bus2=181981.1.2.3 Units=km Length=0.03391013 Rmatrix=[ 0.8025            0.15355            0.15355| 0.15355             0.8025            0.15355| 0.15355            0.15355             0.8025|] Xmatrix=[0.886926666667     0.380036666667     0.380036666667| 0.380036666667     0.886926666667     0.380036666667| 0.380036666667     0.380036666667     0.886926666667|] Cmatrix=[0                  0                  0| 0                  0                  0| 0                  0                  0|]
New Line.181973_181974 Phases=3 bus1=181973.1.2.3 bus2=181974.1.2.3 Units=km Length=0.007670029 Rmatrix=[ 0.277543333333    0.0911333333333    0.0911333333333| 0.0911333333333     0.277543333333    0.0911333333333| 0.0911333333333    0.0911333333333     0.277543333333|] Xmatrix=[0.66072            0.26304            0.26304| 0.26304            0.66072            0.26304| 0.26304            0.26304            0.66072|] Cmatrix=[0                  0                  0| 0                  0                  0| 0                  0                  0|]
New Line.181974_181980 Phases=3 bus1=181974.1.2.3 bus2=181980.1.2.3 Units=km Length=0.02878011 Rmatrix=[ 0.8025            0.15355            0.15355| 0.15355             0.8025            0.15355| 0.15355            0.15355             0.8025|] Xmatrix=[0.886926666667     0.380036666667     0.380036666667| 0.380036666667     0.886926666667     0.380036666667| 0.380036666667     0.380036666667     0.886926666667|] Cmatrix=[0                  0                  0| 0                  0                  0| 0                  0                  0|]
New Line.181968_181942 Phases=3 bus1=181968.1.2.3 bus2=181942.1.2.3 Units=km Length=0.04258016 Rmatrix=[0.192626           0.093207           0.093207| 0.093207           0.192626           0.093207| 0.093207           0.093207           0.192626|] Xmatrix=[0.648306666666     0.281696666667     0.281696666667| 0.281696666667     0.648306666667     0.281696666667| 0.281696666667     0.281696666667     0.648306666667|] Cmatrix=[0                  0                  0| 0                  0                  0| 0                  0                  0|]
New Line.181968_181970 Phases=3 bus1=181968.1.2.3 bus2=181970.1.2.3 Units=km Length=0.009530035 Rmatrix=[0.192626           0.093207           0.093207| 0.093207           0.192626           0.093207| 0.093207           0.093207           0.192626|] Xmatrix=[0.648306666667     0.281696666667     0.281696666667| 0.281696666667     0.648306666667     0.281696666667| 0.281696666667     0.281696666667     0.648306666667|] Cmatrix=[0                  0                  0| 0                  0                  0| 0                  0                  0|]
New Line.181979_181971 Phases=3 bus1=181979.1.2.3 bus2=181971.1.2.3 Units=km Length=0.01316005 Rmatrix=[ 1.18886666667     0.138766666667     0.138766666667| 0.138766666667      1.18886666667     0.138766666667| 0.138766666667     0.138766666667      1.18886666667|] Xmatrix=[ 0.8865            0.36455            0.36455| 0.36455             0.8865            0.36455| 0.36455            0.36455             0.8865|] Cmatrix=[0                  0                  0| 0                  0                  0| 0                  0                  0|]
New Line.181979_181976 Phases=3 bus1=181979.1.2.3 bus2=181976.1.2.3 Units=km Length=0.03091012 Rmatrix=[ 1.18886666667     0.138766666667     0.138766666667| 0.138766666667      1.18886666667     0.138766666667| 0.138766666667     0.138766666667      1.18886666667|] Xmatrix=[ 0.8865            0.36455            0.36455| 0.36455             0.8865            0.36455| 0.36455            0.36455             0.8865|] Cmatrix=[0                  0                  0| 0                  0                  0| 0                  0                  0|]
New Line.181976_181977 Phases=3 bus1=181976.1.2.3 bus2=181977.1.2.3 Units=km Length=0.04377016 Rmatrix=[ 1.18886666667     0.138766666667     0.138766666667| 0.138766666667      1.18886666667     0.138766666667| 0.138766666667     0.138766666667      1.18886666667|] Xmatrix=[ 0.8865            0.36455            0.36455| 0.36455             0.8865            0.36455| 0.36455            0.36455             0.8865|] Cmatrix=[0                  0                  0| 0                  0                  0| 0                  0                  0|]
New Line.181977_181973 Phases=3 bus1=181977.1.2.3 bus2=181973.1.2.3 Units=km Length=0.01208004 Rmatrix=[ 1.18886666667     0.138766666667     0.138766666667| 0.138766666667      1.18886666667     0.138766666667| 0.138766666667     0.138766666667      1.18886666667|] Xmatrix=[ 0.8865            0.36455            0.36455| 0.36455             0.8865            0.36455| 0.36455            0.36455             0.8865|] Cmatrix=[0                  0                  0| 0                  0                  0| 0                  0                  0|]
New Line.181977_181978 Phases=3 bus1=181977.1.2.3 bus2=181978.1.2.3 Units=km Length=0.01532006 Rmatrix=[ 1.18886666667     0.138766666667     0.138766666667| 0.138766666667      1.18886666667     0.138766666667| 0.138766666667     0.138766666667      1.18886666667|] Xmatrix=[ 0.8865            0.36455            0.36455| 0.36455             0.8865            0.36455| 0.36455            0.36455             0.8865|] Cmatrix=[0                  0                  0| 0                  0                  0| 0                  0                  0|]
New Line.181978_181975 Phases=1 bus1=181978.2 bus2=181975.2 Units=km Length=0.04840018 Rmatrix=1.0501 Xmatrix=0.52195 Cmatrix=0
New Line.181975_181982 Phases=1 bus1=181975.2 bus2=181982.2 Units=km Length=0.05933022 Rmatrix=1.0501 Xmatrix=0.52195 Cmatrix=0
New Line.261881_189963 Phases=3 bus1=261881.1.2.3 bus2=189963.1.2.3 Units=km Length=0.06251023 Rmatrix=[ 0.125985333334    0.0341223333332    0.0341223333334| 0.0341223333332     0.125985333333    0.0341223333333| 0.0341223333334    0.0341223333333     0.125985333334|] Xmatrix=[  0.106955333333    -0.023294666667   -0.0232946666668|  -0.023294666667     0.106955333333   -0.0232946666668| -0.0232946666668   -0.0232946666668     0.106955333333|] Cmatrix=[0                  0                  0| 0                  0                  0| 0                  0                  0|]
New Line.261881_261880 Phases=3 bus1=261881.1.2.3 bus2=261880.1.2.3 Units=km Length=0.001 Rmatrix=[1                  0                  0| 0                  1                  0| 0                  0                  1|] Xmatrix=[1                  0                  0| 0     0.999999999999                  0| 0                  0                  1|] Cmatrix=[0                  0                  0| 0                  0                  0| 0                  0                  0|]
New Line.181987_181988 Phases=3 bus1=181987.1.2.3 bus2=181988.1.2.3 Units=km Length=0.007640028 Rmatrix=[ 0.277543333333    0.0911333333334    0.0911333333333| 0.0911333333334     0.277543333333    0.0911333333333| 0.0911333333333    0.0911333333333     0.277543333333|] Xmatrix=[0.66072            0.26304            0.26304| 0.26304            0.66072            0.26304| 0.26304            0.26304            0.66072|] Cmatrix=[0                  0                  0| 0                  0                  0| 0                  0                  0|]
New Line.181988_181989 Phases=3 bus1=181988.1.2.3 bus2=181989.1.2.3 Units=km Length=0.007110027 Rmatrix=[ 0.8025            0.15355            0.15355| 0.15355             0.8025            0.15355| 0.15355            0.15355     0.802499999999|] Xmatrix=[0.886926666667     0.380036666667     0.380036666666| 0.380036666667     0.886926666667     0.380036666667| 0.380036666666     0.380036666667     0.886926666667|] Cmatrix=[0                  0                  0| 0                  0                  0| 0                  0                  0|]
New Line.181985_181986 Phases=3 bus1=181985.1.2.3 bus2=181986.1.2.3 Units=km Length=0.01428005 Rmatrix=[ 1.18886666667     0.138766666667     0.138766666667| 0.138766666667      1.18886666667     0.138766666667| 0.138766666667     0.138766666667      1.18886666667|] Xmatrix=[ 0.8865            0.36455            0.36455| 0.36455             0.8865            0.36455| 0.36455            0.36455             0.8865|] Cmatrix=[0                  0                  0| 0                  0                  0| 0                  0                  0|]
New Line.181986_181987 Phases=3 bus1=181986.1.2.3 bus2=181987.1.2.3 Units=km Length=0.1522306 Rmatrix=[ 1.18886666667     0.138766666666     0.138766666667| 0.138766666666      1.18886666667     0.138766666667| 0.138766666667     0.138766666667      1.18886666666|] Xmatrix=[0.886500000004     0.364549999999            0.36455| 0.364549999999     0.886500000002     0.364549999999|        0.36455     0.364549999999     0.886499999999|] Cmatrix=[0                  0                  0| 0                  0                  0| 0                  0                  0|]
New Line.181989_181992 Phases=3 bus1=181989.1.2.3 bus2=181992.1.2.3 Units=km Length=0.009090034 Rmatrix=[ 0.8025            0.15355            0.15355| 0.15355             0.8025            0.15355| 0.15355            0.15355             0.8025|] Xmatrix=[0.886926666667     0.380036666667     0.380036666667| 0.380036666667     0.886926666667     0.380036666667| 0.380036666667     0.380036666667     0.886926666666|] Cmatrix=[0                  0                  0| 0                  0                  0| 0                  0                  0|]
New Line.181992_181990 Phases=3 bus1=181992.1.2.3 bus2=181990.1.2.3 Units=km Length=0.01910007 Rmatrix=[ 0.8025            0.15355            0.15355| 0.15355             0.8025            0.15355| 0.15355            0.15355             0.8025|] Xmatrix=[0.886926666667     0.380036666667     0.380036666667| 0.380036666667     0.886926666667     0.380036666667| 0.380036666667     0.380036666667     0.886926666667|] Cmatrix=[0                  0                  0| 0                  0                  0| 0                  0                  0|]
New Line.181992_181991 Phases=3 bus1=181992.1.2.3 bus2=181991.1.2.3 Units=km Length=0.1329805 Rmatrix=[ 0.8025            0.15355            0.15355| 0.15355             0.8025            0.15355| 0.15355            0.15355             0.8025|] Xmatrix=[0.886926666666     0.380036666667     0.380036666667| 0.380036666667     0.886926666667     0.380036666667| 0.380036666667     0.380036666667     0.886926666667|] Cmatrix=[0                  0                  0| 0                  0                  0| 0                  0                  0|]
New Line.181993_181994 Phases=3 bus1=181993.1.2.3 bus2=181994.1.2.3 Units=km Length=0.2205308 Rmatrix=[ 0.277543333333    0.0911333333333    0.0911333333333| 0.0911333333333     0.277543333333    0.0911333333333| 0.0911333333333    0.0911333333333     0.277543333333|] Xmatrix=[0.66072            0.26304            0.26304| 0.26304            0.66072            0.26304| 0.26304            0.26304            0.66072|] Cmatrix=[0                  0                  0| 0                  0                  0| 0                  0                  0|]
New Line.181994_181995 Phases=3 bus1=181994.1.2.3 bus2=181995.1.2.3 Units=km Length=0.07269027 Rmatrix=[ 0.277543333333    0.0911333333333    0.0911333333333| 0.0911333333333     0.277543333333    0.0911333333333| 0.0911333333333    0.0911333333333     0.277543333333|] Xmatrix=[0.66072            0.26304            0.26304| 0.26304            0.66072            0.26304| 0.26304            0.26304            0.66072|] Cmatrix=[0                  0                  0| 0                  0                  0| 0                  0                  0|]
New Line.181995_181996 Phases=3 bus1=181995.1.2.3 bus2=181996.1.2.3 Units=km Length=0.06630025 Rmatrix=[ 0.277543333333    0.0911333333333    0.0911333333333| 0.0911333333333     0.277543333333    0.0911333333333| 0.0911333333333    0.0911333333333     0.277543333333|] Xmatrix=[0.66072            0.26304            0.26304| 0.26304            0.66072            0.26304| 0.26304            0.26304            0.66072|] Cmatrix=[0                  0                  0| 0                  0                  0| 0                  0                  0|]
New Line.181996_181997 Phases=3 bus1=181996.1.2.3 bus2=181997.1.2.3 Units=km Length=0.06411024 Rmatrix=[ 0.277543333333    0.0911333333333    0.0911333333334| 0.0911333333333     0.277543333333    0.0911333333333| 0.0911333333334    0.0911333333333     0.277543333333|] Xmatrix=[0.66072            0.26304            0.26304| 0.26304            0.66072            0.26304| 0.26304            0.26304     0.660720000001|] Cmatrix=[0                  0                  0| 0                  0                  0| 0                  0                  0|]
New Line.181996_181999 Phases=3 bus1=181996.1.2.3 bus2=181999.1.2.3 Units=km Length=0.00824003 Rmatrix=[ 0.277543333333    0.0911333333333    0.0911333333333| 0.0911333333333     0.277543333333    0.0911333333333| 0.0911333333333    0.0911333333333     0.277543333333|] Xmatrix=[0.66072            0.26304            0.26304| 0.26304            0.66072            0.26304| 0.26304            0.26304            0.66072|] Cmatrix=[0                  0                  0| 0                  0                  0| 0                  0                  0|]
New Line.181997_182001 Phases=3 bus1=181997.1.2.3 bus2=182001.1.2.3 Units=km Length=0.00824003 Rmatrix=[ 0.277543333333    0.0911333333333    0.0911333333334| 0.0911333333333     0.277543333333    0.0911333333333| 0.0911333333334    0.0911333333333     0.277543333333|] Xmatrix=[0.66072            0.26304            0.26304| 0.26304            0.66072            0.26304| 0.26304            0.26304            0.66072|] Cmatrix=[0                  0                  0| 0                  0                  0| 0                  0                  0|]
New Line.181997_182004 Phases=3 bus1=181997.1.2.3 bus2=182004.1.2.3 Units=km Length=0.04244016 Rmatrix=[ 0.277543333333    0.0911333333334    0.0911333333334| 0.0911333333334     0.277543333333    0.0911333333333| 0.0911333333334    0.0911333333333     0.277543333333|] Xmatrix=[0.66072            0.26304            0.26304| 0.26304            0.66072            0.26304| 0.26304            0.26304            0.66072|] Cmatrix=[0                  0                  0| 0                  0                  0| 0                  0                  0|]
New Line.181998_182003 Phases=3 bus1=181998.1.2.3 bus2=182003.1.2.3 Units=km Length=0.03691014 Rmatrix=[ 0.277543333333    0.0911333333333    0.0911333333333| 0.0911333333333     0.277543333333    0.0911333333333| 0.0911333333333    0.0911333333333     0.277543333333|] Xmatrix=[0.66072            0.26304            0.26304| 0.26304            0.66072            0.26304| 0.26304            0.26304            0.66072|] Cmatrix=[0                  0                  0| 0                  0                  0| 0                  0                  0|]
New Line.181999_181998 Phases=3 bus1=181999.1.2.3 bus2=181998.1.2.3 Units=km Length=0.01529006 Rmatrix=[ 0.277543333333    0.0911333333333    0.0911333333333| 0.0911333333333     0.277543333333    0.0911333333333| 0.0911333333333    0.0911333333333     0.277543333333|] Xmatrix=[0.66072            0.26304            0.26304| 0.26304            0.66072            0.26304| 0.26304            0.26304            0.66072|] Cmatrix=[0                  0                  0| 0                  0                  0| 0                  0                  0|]
New Line.182000_182002 Phases=3 bus1=182000.1.2.3 bus2=182002.1.2.3 Units=km Length=0.007340027 Rmatrix=[ 0.277543333333    0.0911333333333    0.0911333333333| 0.0911333333333     0.277543333333    0.0911333333333| 0.0911333333333    0.0911333333333     0.277543333333|] Xmatrix=[0.66072            0.26304            0.26304| 0.26304            0.66072            0.26304| 0.26304            0.26304            0.66072|] Cmatrix=[0                  0                  0| 0                  0                  0| 0                  0                  0|]
New Line.182001_182000 Phases=3 bus1=182001.1.2.3 bus2=182000.1.2.3 Units=km Length=0.01514006 Rmatrix=[ 0.277543333333    0.0911333333333    0.0911333333334| 0.0911333333333     0.277543333333    0.0911333333334| 0.0911333333334    0.0911333333334     0.277543333333|] Xmatrix=[0.66072            0.26304            0.26304| 0.26304            0.66072            0.26304| 0.26304            0.26304            0.66072|] Cmatrix=[0                  0                  0| 0                  0                  0| 0                  0                  0|]
New Line.182004_182005 Phases=3 bus1=182004.1.2.3 bus2=182005.1.2.3 Units=km Length=0.006690025 Rmatrix=[ 1.18886666667     0.138766666667     0.138766666667| 0.138766666667      1.18886666667     0.138766666667| 0.138766666667     0.138766666667      1.18886666667|] Xmatrix=[ 0.8865            0.36455            0.36455| 0.36455             0.8865            0.36455| 0.36455            0.36455             0.8865|] Cmatrix=[0                  0                  0| 0                  0                  0| 0                  0                  0|]
New Line.182004_182011 Phases=3 bus1=182004.1.2.3 bus2=182011.1.2.3 Units=km Length=0.0793603 Rmatrix=[ 1.18886666667     0.138766666666     0.138766666667| 0.138766666666      1.18886666667     0.138766666667| 0.138766666667     0.138766666667      1.18886666667|] Xmatrix=[ 0.8865            0.36455            0.36455| 0.36455             0.8865            0.36455| 0.36455            0.36455             0.8865|] Cmatrix=[0                  0                  0| 0                  0                  0| 0                  0                  0|]
New Line.182005_182006 Phases=3 bus1=182005.1.2.3 bus2=182006.1.2.3 Units=km Length=0.01524006 Rmatrix=[ 0.277543333333    0.0911333333333    0.0911333333333| 0.0911333333333     0.277543333333    0.0911333333333| 0.0911333333333    0.0911333333333     0.277543333333|] Xmatrix=[0.66072            0.26304            0.26304| 0.26304            0.66072            0.26304| 0.26304            0.26304            0.66072|] Cmatrix=[0                  0                  0| 0                  0                  0| 0                  0                  0|]
[...]
New Capacitor.addedShuntCap_S86X_1003130 Phases=3 Bus1=S86X_1003130.1.2.3 Kvar=0 Kv=0.12009 Cmatrix=[ 0.00075033 -0.00060021 -0.00060012| -0.00060021  0.00075042 -0.00060021| -0.00060012 -0.00060021  0.00075033|]
New Capacitor.addedShuntCap_S87X_1003130 Phases=3 Bus1=S87X_1003130.1.2.3 Kvar=0 Kv=0.12009 Cmatrix=[ 0.00075033 -0.00060021 -0.00060012| -0.00060021  0.00075042 -0.00060021| -0.00060012 -0.00060021  0.00075033|]
New Capacitor.addedShuntCap_S88X_1003130 Phases=3 Bus1=S88X_1003130.1.2.3 Kvar=0 Kv=0.12009 Cmatrix=[ 0.00075033 -0.00060021 -0.00060012| -0.00060021  0.00075042 -0.00060021| -0.00060012 -0.00060021  0.00075033|]
New Capacitor.addedShuntCap_S89X_1003130 Phases=3 Bus1=S89X_1003130.1.2.3 Kvar=0 Kv=0.12009 Cmatrix=[ 0.00075033  -0.0006002 -0.00060011|  -0.0006002  0.00075044 -0.00060024| -0.00060011 -0.00060024  0.00075036|]
New Capacitor.addedShuntCap_S90X_1003130 Phases=3 Bus1=S90X_1003130.1.2.3 Kvar=0 Kv=0.12009 Cmatrix=[ 0.00075033 -0.00060021 -0.00060012| -0.00060021  0.00075042 -0.00060021| -0.00060012 -0.00060021  0.00075033|]
New Capacitor.addedShuntCap_S91X_1003130 Phases=3 Bus1=S91X_1003130.1.2.3 Kvar=0 Kv=0.12009 Cmatrix=[ 0.00075033  -0.0006002 -0.00060011|  -0.0006002  0.00075044 -0.00060024| -0.00060011 -0.00060024  0.00075036|]
New Capacitor.addedShuntCap_S92X_1003130 Phases=3 Bus1=S92X_1003130.1.2.3 Kvar=0 Kv=0.12009 Cmatrix=[ 0.00075033 -0.00060021 -0.00060012| -0.00060021  0.00075042 -0.00060021| -0.00060012 -0.00060021  0.00075033|]
New Capacitor.addedShuntCap_S93X_1003130 Phases=3 Bus1=S93X_1003130.1.2.3 Kvar=0 Kv=0.12009 Cmatrix=[ 0.00075033 -0.00060021 -0.00060012| -0.00060021  0.00075042 -0.00060021| -0.00060012 -0.00060021  0.00075033|]
New Capacitor.addedShuntCap_S94X_1003130 Phases=3 Bus1=S94X_1003130.1.2.3 Kvar=0 Kv=0.12009 Cmatrix=[ 0.00075033 -0.00060021 -0.00060012| -0.00060021  0.00075042 -0.00060021| -0.00060012 -0.00060021  0.00075033|]
New Capacitor.addedShuntCap_S95X_1003130 Phases=3 Bus1=S95X_1003130.1.2.3 Kvar=0 Kv=0.12009 Cmatrix=[ 0.00075034 -0.00060021 -0.00060012| -0.00060021  0.00075042 -0.00060021| -0.00060012 -0.00060021  0.00075033|]
New Capacitor.addedShuntCap_S96X_1003130 Phases=3 Bus1=S96X_1003130.1.2.3 Kvar=0 Kv=0.12009 Cmatrix=[ 0.00075034 -0.00060021 -0.00060012| -0.00060021  0.00075042 -0.00060021| -0.00060012 -0.00060021  0.00075033|]
New Capacitor.addedShuntCap_S97X_1003130 Phases=3 Bus1=S97X_1003130.1.2.3 Kvar=0 Kv=0.12009 Cmatrix=[ 0.00075034 -0.00060021 -0.00060012| -0.00060021  0.00075042 -0.00060021| -0.00060012 -0.00060021  0.00075033|]
New Capacitor.addedShuntCap_S98X_1003130 Phases=3 Bus1=S98X_1003130.1.2.3 Kvar=0 Kv=0.12009 Cmatrix=[ 0.00075033  -0.0006002 -0.00060011|  -0.0006002  0.00075044 -0.00060024| -0.00060011 -0.00060024  0.00075036|]
New Capacitor.addedShuntCap_S99X_1003130 Phases=3 Bus1=S99X_1003130.1.2.3 Kvar=0 Kv=0.12009 Cmatrix=[ 0.00075033  -0.0006002 -0.00060011|  -0.0006002  0.00075044 -0.00060024| -0.00060011 -0.00060024  0.00075036|]
New Capacitor.addedShuntCap_S100X_1003130 Phases=3 Bus1=S100X_1003130.1.2.3 Kvar=0 Kv=0.12009 Cmatrix=[ 0.00075033 -0.00060021 -0.00060012| -0.00060021  0.00075042 -0.00060021| -0.00060012 -0.00060021  0.00075033|]
New Capacitor.addedShuntCap_S101X_1003130 Phases=3 Bus1=S101X_1003130.1.2.3 Kvar=0 Kv=0.12009 Cmatrix=[ 0.00075033  -0.0006002 -0.00060011|  -0.0006002  0.00075044 -0.00060024| -0.00060011 -0.00060024  0.00075036|]
New Capacitor.addedShuntCap_S102X_1003130 Phases=3 Bus1=S102X_1003130.1.2.3 Kvar=0 Kv=0.12009 Cmatrix=[ 0.00075033 -0.00060021 -0.00060012| -0.00060021  0.00075042 -0.00060021| -0.00060012 -0.00060021  0.00075033|]
New Capacitor.addedShuntCap_S103X_1003130 Phases=3 Bus1=S103X_1003130.1.2.3 Kvar=0 Kv=0.12009 Cmatrix=[ 0.00075033  -0.0006002 -0.00060011|  -0.0006002  0.00075044 -0.00060024| -0.00060011 -0.00060024  0.00075036|]
New Capacitor.addedShuntCap_S104X_1003130 Phases=3 Bus1=S104X_1003130.1.2.3 Kvar=0 Kv=0.12009 Cmatrix=[ 0.00075033  -0.0006002 -0.00060011|  -0.0006002  0.00075044 -0.00060024| -0.00060011 -0.00060024  0.00075036|]
New Capacitor.addedShuntCap_S105X_1003130 Phases=3 Bus1=S105X_1003130.1.2.3 Kvar=0 Kv=0.12009 Cmatrix=[ 0.00075033  -0.0006002 -0.00060011|  -0.0006002  0.00075044 -0.00060024| -0.00060011 -0.00060024  0.00075036|]
New Capacitor.addedShuntCap_S106X_1003130 Phases=3 Bus1=S106X_1003130.1.2.3 Kvar=0 Kv=0.12009 Cmatrix=[ 0.00075033  -0.0006002 -0.00060011|  -0.0006002  0.00075044 -0.00060024| -0.00060011 -0.00060024  0.00075036|]
New Capacitor.addedShuntCap_S107X_1003130 Phases=3 Bus1=S107X_1003130.1.2.3 Kvar=0 Kv=0.12009 Cmatrix=[ 0.00075033  -0.0006002 -0.00060011|  -0.0006002  0.00075044 -0.00060024| -0.00060011 -0.00060024  0.00075036|]
New Capacitor.addedShuntCap_S108X_1003130 Phases=3 Bus1=S108X_1003130.1.2.3 Kvar=0 Kv=0.12009 Cmatrix=[ 0.00075033  -0.0006002 -0.00060011|  -0.0006002  0.00075044 -0.00060024| -0.00060011 -0.00060024  0.00075036|]
New Capacitor.addedShuntCap_S109X_1003130 Phases=3 Bus1=S109X_1003130.1.2.3 Kvar=0 Kv=0.12009 Cmatrix=[ 0.00075033  -0.0006002 -0.00060011|  -0.0006002  0.00075044 -0.00060024| -0.00060011 -0.00060024  0.00075036|]
New Capacitor.addedShuntCap_S110X_1003130 Phases=3 Bus1=S110X_1003130.1.2.3 Kvar=0 Kv=0.12009 Cmatrix=[ 0.00075033  -0.0006002 -0.00060011|  -0.0006002  0.00075044 -0.00060024| -0.00060011 -0.00060024  0.00075036|]
New Capacitor.addedShuntCap_S111X_1003130 Phases=3 Bus1=S111X_1003130.1.2.3 Kvar=0 Kv=0.12009 Cmatrix=[ 0.00075033  -0.0006002 -0.00060011|  -0.0006002  0.00075044 -0.00060024| -0.00060011 -0.00060024  0.00075036|]
New Capacitor.addedShuntCap_S112X_1003130 Phases=3 Bus1=S112X_1003130.1.2.3 Kvar=0 Kv=0.12009 Cmatrix=[ 0.00075033  -0.0006002 -0.00060011|  -0.0006002  0.00075044 -0.00060024| -0.00060011 -0.00060024  0.00075036|]
New Capacitor.addedShuntCap_S113X_1003130 Phases=3 Bus1=S113X_1003130.1.2.3 Kvar=0 Kv=0.12009 Cmatrix=[ 0.00075033  -0.0006002 -0.00060011|  -0.0006002  0.00075044 -0.00060024| -0.00060011 -0.00060024  0.00075036|]
New Capacitor.addedShuntCap_S114X_1003130 Phases=3 Bus1=S114X_1003130.1.2.3 Kvar=0 Kv=0.12009 Cmatrix=[ 0.00075033  -0.0006002 -0.00060011|  -0.0006002  0.00075044 -0.00060024| -0.00060011 -0.00060024  0.00075036|]
New Capacitor.addedShuntCap_S115X_1003130 Phases=3 Bus1=S115X_1003130.1.2.3 Kvar=0 Kv=0.12009 Cmatrix=[ 0.00075033 -0.00060021 -0.00060012| -0.00060021  0.00075042 -0.00060021| -0.00060012 -0.00060021  0.00075033|]
New Capacitor.addedShuntCap_S116X_1003130 Phases=3 Bus1=S116X_1003130.1.2.3 Kvar=0 Kv=0.12009 Cmatrix=[ 0.00075033  -0.0006002 -0.00060011|  -0.0006002  0.00075044 -0.00060024| -0.00060011 -0.00060024  0.00075036|]
New Capacitor.addedShuntCap_S117X_1003130 Phases=3 Bus1=S117X_1003130.1.2.3 Kvar=0 Kv=0.12009 Cmatrix=[ 0.00075033 -0.00060021 -0.00060012| -0.00060021  0.00075042 -0.00060021| -0.00060012 -0.00060021  0.00075033|]
New Capacitor.addedShuntCap_S118X_1003130 Phases=3 Bus1=S118X_1003130.1.2.3 Kvar=0 Kv=0.12009 Cmatrix=[ 0.00075033 -0.00060021 -0.00060012| -0.00060021  0.00075042 -0.00060021| -0.00060012 -0.00060021  0.00075033|]
New Capacitor.addedShuntCap_S119X_1003130 Phases=3 Bus1=S119X_1003130.1.2.3 Kvar=0 Kv=0.12009 Cmatrix=[ 0.00075033  -0.0006002 -0.00060011|  -0.0006002  0.00075044 -0.00060024| -0.00060011 -0.00060024  0.00075036|]
New Capacitor.addedShuntCap_S120X_1003130 Phases=3 Bus1=S120X_1003130.1.2.3 Kvar=0 Kv=0.12009 Cmatrix=[ 0.00075033 -0.00060021 -0.00060012| -0.00060021  0.00075042 -0.00060021| -0.00060012 -0.00060021  0.00075033|]
New Capacitor.addedShuntCap_S121X_1003130 Phases=3 Bus1=S121X_1003130.1.2.3 Kvar=0 Kv=0.12009 Cmatrix=[ 0.00075033  -0.0006002 -0.00060011|  -0.0006002  0.00075044 -0.00060024| -0.00060011 -0.00060024  0.00075036|]
New Capacitor.addedShuntCap_S122X_1003130 Phases=3 Bus1=S122X_1003130.1.2.3 Kvar=0 Kv=0.12009 Cmatrix=[ 0.00075033  -0.0006002 -0.00060011|  -0.0006002  0.00075044 -0.00060024| -0.00060011 -0.00060024  0.00075036|]
New Capacitor.addedShuntCap_S123X_1003130 Phases=3 Bus1=S123X_1003130.1.2.3 Kvar=0 Kv=0.12009 Cmatrix=[ 0.00075033  -0.0006002 -0.00060011|  -0.0006002  0.00075044 -0.00060024| -0.00060011 -0.00060024  0.00075036|]
New Capacitor.addedShuntCap_S124X_1003130 Phases=3 Bus1=S124X_1003130.1.2.3 Kvar=0 Kv=0.12009 Cmatrix=[ 0.00075033  -0.0006002 -0.00060011|  -0.0006002  0.00075044 -0.00060024| -0.00060011 -0.00060024  0.00075036|]
New Capacitor.addedShuntCap_S125X_1003130 Phases=3 Bus1=S125X_1003130.1.2.3 Kvar=0 Kv=0.12009 Cmatrix=[ 0.00075033  -0.0006002 -0.00060011|  -0.0006002  0.00075044 -0.00060024| -0.00060011 -0.00060024  0.00075036|]
New Capacitor.addedShuntCap_S126X_1003130 Phases=3 Bus1=S126X_1003130.1.2.3 Kvar=0 Kv=0.12009 Cmatrix=[ 0.00075033  -0.0006002 -0.00060011|  -0.0006002  0.00075044 -0.00060024| -0.00060011 -0.00060024  0.00075036|]
New Capacitor.addedShuntCap_S127X_1003130 Phases=3 Bus1=S127X_1003130.1.2.3 Kvar=0 Kv=0.12009 Cmatrix=[ 0.00075033  -0.0006002 -0.00060011|  -0.0006002  0.00075044 -0.00060024| -0.00060011 -0.00060024  0.00075036|]
New Capacitor.addedShuntCap_S128X_1003130 Phases=3 Bus1=S128X_1003130.1.2.3 Kvar=0 Kv=0.12009 Cmatrix=[ 0.00075033  -0.0006002 -0.00060011|  -0.0006002  0.00075044 -0.00060024| -0.00060011 -0.00060024  0.00075036|]
New Capacitor.addedShuntCap_S129X_1003130 Phases=3 Bus1=S129X_1003130.1.2.3 Kvar=0 Kv=0.12009 Cmatrix=[ 0.00075033  -0.0006002 -0.00060011|  -0.0006002  0.00075044 -0.00060024| -0.00060011 -0.00060024  0.00075036|]
New Capacitor.addedShuntCap_S130X_1003130 Phases=3 Bus1=S130X_1003130.1.2.3 Kvar=0 Kv=0.12009 Cmatrix=[ 0.00075033  -0.0006002 -0.00060011|  -0.0006002  0.00075044 -0.00060024| -0.00060011 -0.00060024  0.00075036|]
New Capacitor.addedShuntCap_S131X_1003130 Phases=3 Bus1=S131X_1003130.1.2.3 Kvar=0 Kv=0.12009 Cmatrix=[ 0.00075033  -0.0006002 -0.00060011|  -0.0006002  0.00075044 -0.00060024| -0.00060011 -0.00060024  0.00075036|]
New Capacitor.addedShuntCap_S132X_1003130 Phases=3 Bus1=S132X_1003130.1.2.3 Kvar=0 Kv=0.12009 Cmatrix=[ 0.00075033  -0.0006002 -0.00060011|  -0.0006002  0.00075044 -0.00060024| -0.00060011 -0.00060024  0.00075036|]
New Capacitor.addedShuntCap_S133X_1003130 Phases=3 Bus1=S133X_1003130.1.2.3 Kvar=0 Kv=0.12009 Cmatrix=[ 0.00075033  -0.0006002 -0.00060011|  -0.0006002  0.00075044 -0.00060024| -0.00060011 -0.00060024  0.00075036|]
New Capacitor.addedShuntCap_S134X_1003130 Phases=3 Bus1=S134X_1003130.1.2.3 Kvar=0 Kv=0.12009 Cmatrix=[ 0.00075033  -0.0006002 -0.00060011|  -0.0006002  0.00075044 -0.00060024| -0.00060011 -0.00060024  0.00075036|]
New Capacitor.addedShuntCap_S135X_1003130 Phases=3 Bus1=S135X_1003130.1.2.3 Kvar=0 Kv=0.12009 Cmatrix=[ 0.00075033  -0.0006002 -0.00060011|  -0.0006002  0.00075044 -0.00060024| -0.00060011 -0.00060024  0.00075036|]
New Capacitor.addedShuntCap_S136X_1003130 Phases=3 Bus1=S136X_1003130.1.2.3 Kvar=0 Kv=0.12009 Cmatrix=[ 0.00075033  -0.0006002 -0.00060011|  -0.0006002  0.00075044 -0.00060024| -0.00060011 -0.00060024  0.00075036|]
New Capacitor.addedShuntCap_S137X_1003130 Phases=3 Bus1=S137X_1003130.1.2.3 Kvar=0 Kv=0.12009 Cmatrix=[ 0.00075033  -0.0006002 -0.00060011|  -0.0006002  0.00075044 -0.00060024| -0.00060011 -0.00060024  0.00075036|]
New Capacitor.addedShuntCap_S138X_1003130 Phases=3 Bus1=S138X_1003130.1.2.3 Kvar=0 Kv=0.12009 Cmatrix=[ 0.00075033  -0.0006002 -0.00060011|  -0.0006002  0.00075044 -0.00060024| -0.00060011 -0.00060024  0.00075036|]
New Capacitor.addedShuntCap_S139X_1003130 Phases=3 Bus1=S139X_1003130.1.2.3 Kvar=0 Kv=0.12009 Cmatrix=[ 0.00075033 -0.00060021 -0.00060012| -0.00060021  0.00075042 -0.00060021| -0.00060012 -0.00060021  0.00075033|]
New Capacitor.addedShuntCap_S140X_1003130 Phases=3 Bus1=S140X_1003130.1.2.3 Kvar=0 Kv=0.12009 Cmatrix=[ 0.00075033  -0.0006002 -0.00060011|  -0.0006002  0.00075044 -0.00060024| -0.00060011 -0.00060024  0.00075036|]
New Capacitor.addedShuntCap_S141X_1003130 Phases=3 Bus1=S141X_1003130.1.2.3 Kvar=0 Kv=0.12009 Cmatrix=[ 0.00075033  -0.0006002 -0.00060011|  -0.0006002  0.00075044 -0.00060024| -0.00060011 -0.00060024  0.00075036|]
New Capacitor.addedShuntCap_S142X_1003130 Phases=3 Bus1=S142X_1003130.1.2.3 Kvar=0 Kv=0.12009 Cmatrix=[ 0.00075033  -0.0006002 -0.00060011|  -0.0006002  0.00075044 -0.00060024| -0.00060011 -0.00060024  0.00075036|]
New Capacitor.addedShuntCap_S143X_1003130 Phases=3 Bus1=S143X_1003130.1.2.3 Kvar=0 Kv=0.12009 Cmatrix=[ 0.00075033  -0.0006002 -0.00060011|  -0.0006002  0.00075044 -0.00060024| -0.00060011 -0.00060024  0.00075036|]
New Capacitor.addedShuntCap_S144X_1003130 Phases=3 Bus1=S144X_1003130.1.2.3 Kvar=0 Kv=0.12009 Cmatrix=[ 0.00075033  -0.0006002 -0.00060011|  -0.0006002  0.00075044 -0.00060024| -0.00060011 -0.00060024  0.00075036|]
New Capacitor.addedShuntCap_S145X_1003130 Phases=3 Bus1=S145X_1003130.1.2.3 Kvar=0 Kv=0.12009 Cmatrix=[ 0.00075033  -0.0006002 -0.00060011|  -0.0006002  0.00075044 -0.00060024| -0.00060011 -0.00060024  0.00075036|]
New Capacitor.addedShuntCap_S146X_1003130 Phases=3 Bus1=S146X_1003130.1.2.3 Kvar=0 Kv=0.12009 Cmatrix=[ 0.00075033 -0.00060021 -0.00060012| -0.00060021  0.00075042 -0.00060021| -0.00060012 -0.00060021  0.00075033|]
New Capacitor.addedShuntCap_S147X_1003130 Phases=3 Bus1=S147X_1003130.1.2.3 Kvar=0 Kv=0.12009 Cmatrix=[ 0.00075033  -0.0006002 -0.00060011|  -0.0006002  0.00075044 -0.00060024| -0.00060011 -0.00060024  0.00075036|]
New Capacitor.addedShuntCap_S148X_1003130 Phases=3 Bus1=S148X_1003130.1.2.3 Kvar=0 Kv=0.12009 Cmatrix=[ 0.00075033  -0.0006002 -0.00060011|  -0.0006002  0.00075044 -0.00060024| -0.00060011 -0.00060024  0.00075036|]
New Capacitor.addedShuntCap_S149X_1003130 Phases=3 Bus1=S149X_1003130.1.2.3 Kvar=0 Kv=0.12009 Cmatrix=[ 0.00075033  -0.0006002 -0.00060011|  -0.0006002  0.00075044 -0.00060024| -0.00060011 -0.00060024  0.00075036|]
New Capacitor.addedShuntCap_S150X_1003130 Phases=3 Bus1=S150X_1003130.1.2.3 Kvar=0 Kv=0.12009 Cmatrix=[ 0.00075033  -0.0006002 -0.00060011|  -0.0006002  0.00075044 -0.00060024| -0.00060011 -0.00060024  0.00075036|]
New Capacitor.addedShuntCap_S151X_1003130 Phases=3 Bus1=S151X_1003130.1.2.3 Kvar=0 Kv=0.12009 Cmatrix=[ 0.00075033  -0.0006002 -0.00060011|  -0.0006002  0.00075044 -0.00060024| -0.00060011 -0.00060024  0.00075036|]
New Capacitor.addedShuntCap_S152X_1003130 Phases=3 Bus1=S152X_1003130.1.2.3 Kvar=0 Kv=0.12009 Cmatrix=[ 0.00075033  -0.0006002 -0.00060011|  -0.0006002  0.00075044 -0.00060024| -0.00060011 -0.00060024  0.00075036|]
New Capacitor.addedShuntCap_S153X_1003130 Phases=3 Bus1=S153X_1003130.1.2.3 Kvar=0 Kv=0.12009 Cmatrix=[ 0.00075033  -0.0006002 -0.00060011|  -0.0006002  0.00075044 -0.00060024| -0.00060011 -0.00060024  0.00075036|]
New Capacitor.addedShuntCap_S154X_1003130 Phases=3 Bus1=S154X_1003130.1.2.3 Kvar=0 Kv=0.12009 Cmatrix=[ 0.00075033  -0.0006002 -0.00060011|  -0.0006002  0.00075044 -0.00060024| -0.00060011 -0.00060024  0.00075036|]
New Capacitor.addedShuntCap_S155X_1003130 Phases=3 Bus1=S155X_1003130.1.2.3 Kvar=0 Kv=0.12009 Cmatrix=[ 0.00075033 -0.00060021 -0.00060012| -0.00060021  0.00075042 -0.00060021| -0.00060012 -0.00060021  0.00075033|]
New Capacitor.addedShuntCap_S156X_1003130 Phases=3 Bus1=S156X_1003130.1.2.3 Kvar=0 Kv=0.12009 Cmatrix=[ 0.00075033 -0.00060021 -0.00060012| -0.00060021  0.00075042 -0.00060021| -0.00060012 -0.00060021  0.00075033|]
New Capacitor.addedShuntCap_S157X_1003130 Phases=3 Bus1=S157X_1003130.1.2.3 Kvar=0 Kv=0.12009 Cmatrix=[ 0.00075033  -0.0006002 -0.00060011|  -0.0006002  0.00075044 -0.00060024| -0.00060011 -0.00060024  0.00075036|]
New Capacitor.addedShuntCap_S158X_1003130 Phases=3 Bus1=S158X_1003130.1.2.3 Kvar=0 Kv=0.12009 Cmatrix=[ 0.00075033 -0.00060021 -0.00060012| -0.00060021  0.00075042 -0.00060021| -0.00060012 -0.00060021  0.00075033|]
New Capacitor.addedShuntCap_S159X_1003130 Phases=3 Bus1=S159X_1003130.1.2.3 Kvar=0 Kv=0.12009 Cmatrix=[ 0.00075033  -0.0006002 -0.00060011|  -0.0006002  0.00075044 -0.00060024| -0.00060011 -0.00060024  0.00075036|]
New Capacitor.addedShuntCap_S160X_1003130 Phases=3 Bus1=S160X_1003130.1.2.3 Kvar=0 Kv=0.12009 Cmatrix=[ 0.00075033 -0.00060021 -0.00060012| -0.00060021  0.00075042 -0.00060021| -0.00060012 -0.00060021  0.00075033|]
New Capacitor.addedShuntCap_S161X_1003130 Phases=3 Bus1=S161X_1003130.1.2.3 Kvar=0 Kv=0.12009 Cmatrix=[ 0.00075033 -0.00060021 -0.00060012| -0.00060021  0.00075042 -0.00060021| -0.00060012 -0.00060021  0.00075033|]
New Capacitor.addedShuntCap_S162X_1003130 Phases=3 Bus1=S162X_1003130.1.2.3 Kvar=0 Kv=0.12009 Cmatrix=[ 0.00075033 -0.00060021 -0.00060012| -0.00060021  0.00075042 -0.00060021| -0.00060012 -0.00060021  0.00075033|]
New Capacitor.addedShuntCap_S163X_1003130 Phases=3 Bus1=S163X_1003130.1.2.3 Kvar=0 Kv=0.12009 Cmatrix=[ 0.00075033  -0.0006002 -0.00060011|  -0.0006002  0.00075044 -0.00060024| -0.00060011 -0.00060024  0.00075036|]
New Capacitor.addedShuntCap_S164X_1003130 Phases=3 Bus1=S164X_1003130.1.2.3 Kvar=0 Kv=0.12009 Cmatrix=[ 0.00075033 -0.00060021 -0.00060012| -0.00060021  0.00075042 -0.00060021| -0.00060012 -0.00060021  0.00075033|]
New Capacitor.addedShuntCap_S165X_1003130 Phases=3 Bus1=S165X_1003130.1.2.3 Kvar=0 Kv=0.12009 Cmatrix=[ 0.00075033 -0.00060021 -0.00060012| -0.00060021  0.00075042 -0.00060021| -0.00060012 -0.00060021  0.00075033|]
New Capacitor.addedShuntCap_S166X_1003130 Phases=3 Bus1=S166X_1003130.1.2.3 Kvar=0 Kv=0.12009 Cmatrix=[ 0.00075033  -0.0006002 -0.00060011|  -0.0006002  0.00075044 -0.00060024| -0.00060011 -0.00060024  0.00075036|]
New Capacitor.addedShuntCap_S167X_1003130 Phases=3 Bus1=S167X_1003130.1.2.3 Kvar=0 Kv=0.12009 Cmatrix=[ 0.00075033  -0.0006002 -0.00060011|  -0.0006002  0.00075044 -0.00060024| -0.00060011 -0.00060024  0.00075036|]
New Capacitor.addedShuntCap_S168X_1003130 Phases=3 Bus1=S168X_1003130.1.2.3 Kvar=0 Kv=0.12009 Cmatrix=[ 0.00075033 -0.00060021 -0.00060012| -0.00060021  0.00075042 -0.00060021| -0.00060012 -0.00060021  0.00075033|]
New Capacitor.addedShuntCap_X_1003140 Phases=3 Bus1=X_1003140.1.2.3 Kvar=0 Kv=0.12009 Cmatrix=[  0.002251  -0.0018006  -0.0018004| -0.0018006   0.0022513  -0.0018006| -0.0018004  -0.0018006    0.002251|]
New Capacitor.addedShuntCap_S1X_1003140 Phases=3 Bus1=S1X_1003140.1.2.3 Kvar=0 Kv=0.12009 Cmatrix=[ 0.00075033 -0.00060021 -0.00060012| -0.00060021  0.00075042 -0.00060021| -0.00060012 -0.00060021  0.00075033|]
New Capacitor.addedShuntCap_S2X_1003140 Phases=3 Bus1=S2X_1003140.1.2.3 Kvar=0 Kv=0.12009 Cmatrix=[ 0.00075033 -0.00060021 -0.00060012| -0.00060021  0.00075042 -0.00060021| -0.00060012 -0.00060021  0.00075033|]
New Capacitor.addedShuntCap_S3X_1003140 Phases=3 Bus1=S3X_1003140.1.2.3 Kvar=0 Kv=0.12009 Cmatrix=[ 0.00075033 -0.00060021 -0.00060012| -0.00060021  0.00075042 -0.00060021| -0.00060012 -0.00060021  0.00075033|]
New Capacitor.addedShuntCap_X_1007805 Phases=3 Bus1=X_1007805.1.2.3 Kvar=0 Kv=0.24 Cmatrix=[0.00030004           0           0|          0  0.00030004           0|          0           0  0.00030004|]
New Capcontrol.CP_NR_613 Element=line.181945_181932 Capacitor=CP_NR_613 Type=voltage Delay=75 OFFsetting=121 ONsetting=118 PTRatio=60
New Capcontrol.CP_85W_900 Element=line.181926_181993 Capacitor=CP_85W_900 Type=voltage Delay=30 OFFsetting=124 ONsetting=120 PTRatio=60
New Load.Load_CKT7.1_model_1 Phases=1 bus1=CKT7.1 Kv=7.2 Kw=23638.1197 Model=1 Kvar=7769.8397
New Load.Load_CKT7.2_model_1 Phases=1 bus1=CKT7.2 Kv=7.2 Kw=23792.7677 Model=1 Kvar=7823.1147
New Load.Load_CKT7.3_model_1 Phases=1 bus1=CKT7.3 Kv=7.2 Kw=23575.4315 Model=1 Kvar=7746.5225
New Load.Load_318405.2_model_1 Phases=1 bus1=318405.2 Kv=7.2 Kw=0.54951 Model=1 Kvar=0.086242
New Load.Load_318412.1_model_1 Phases=1 bus1=318412.1 Kv=7.2 Kw=0.73133 Model=1 Kvar=-0.12471


! Let DSS estimate the voltage bases
Set voltagebases=[115 12.47 0.48 0.4157 0.208 0.12]
Calcvoltagebases     ! This also establishes the bus list

Buscoords OutputDSS_buscoords.csv


set maxiterations=1000
