Clear

New Circuit.ALPINE_Reduced_Reduced bus1=SourceBus basekv=12 R1=0.063 X1=0.5495 R0=0.0152 X0=1.3295 Sequence=pos
New Line.0355_03552576 Phases=3 bus1=0355.1.2.3 bus2=03552576.1.2.3 Units=km Length=2.7004518 Rmatrix=[ 0.207448791824    0.0526367641508    0.0526367641506| 0.0526367641508     0.207448775658    0.0526367604981| 0.0526367641506    0.0526367604981     0.207448775657|] Xmatrix=[0.638779965629     0.241814527614     0.241814527614| 0.241814527614     0.638779941613     0.241814520864| 0.241814527614     0.241814520864     0.638779941612|] Cmatrix=[0                  0                  0| 0                  0                  0| 0                  0                  0|]
New Line.03552576_03552577 Phases=3 bus1=03552576.1.2.3 bus2=03552577.1.2.3 Units=km Length=0.0454152 Rmatrix=[ 0.251312335958    0.0629921259842    0.0629921259842| 0.0629921259842     0.251312335958    0.0629921259842| 0.0629921259842    0.0629921259842     0.251312335958|] Xmatrix=[0.652230971128     0.246719160105     0.246719160105| 0.246719160105     0.652230971129     0.246719160105| 0.246719160105     0.246719160105     0.652230971129|] Cmatrix=[0                  0                  0| 0                  0                  0| 0                  0                  0|]
New Transformer.ALPINE Phases=3 Windings=2 Buses=[SourceBus 0355] Conns=[wye wye] kVs=[12  12] kVAs=[20000  20000] %Noloadloss=0 %imag=0 sub=y
New Capacitor.355_1385CW Phases=3 Bus1=03552577 Kvar=1350 Kv=12 Conn=wye states=1 Numsteps=20
New Capcontrol.capctrl_355_1385CW Element=line.03552576_03552577 Capacitor=355_1385CW Type=voltage CTRatio=100 OFFsetting=125 ONsetting=119 PTPhase=3 PTRatio=57.75 Vmax=123 Vmin=119 VoltOverride=TRUE
New XYCurve.myeff npts=4 Xarray=[0   25   75  100] Yarray=[1  1  1  1]
New XYCurve.mypvst npts=4 Xarray=[0.1         0.2         0.4           1] Yarray=[1  1  1  1]
New XYCurve.CurveFor_InvForPV_0355.1_from_03551.1 npts=6 Xarray=[0.5        0.95        0.98        1.02        1.05         1.5] Yarray=[1  1  0  0 -1 -1]
New XYCurve.CurveFor_InvForPV_0355.2_from_03551.2 npts=6 Xarray=[0.5        0.95        0.98        1.02        1.05         1.5] Yarray=[1  1  0  0 -1 -1]
New XYCurve.CurveFor_InvForPV_0355.3_from_03551.3 npts=6 Xarray=[0.5        0.95        0.98        1.02        1.05         1.5] Yarray=[1  1  0  0 -1 -1]
New XYCurve.CurveFor_InvForPV_0355.1_from_03552.1 npts=6 Xarray=[0.5        0.95        0.98        1.02        1.05         1.5] Yarray=[1  1  0  0 -1 -1]
New XYCurve.CurveFor_InvForPV_0355.2_from_03552.2 npts=6 Xarray=[0.5        0.95        0.98        1.02        1.05         1.5] Yarray=[1  1  0  0 -1 -1]
New XYCurve.CurveFor_InvForPV_0355.3_from_03552.3 npts=6 Xarray=[0.5        0.95        0.98        1.02        1.05         1.5] Yarray=[1  1  0  0 -1 -1]
New XYCurve.CurveFor_InvForPV_0355.1_from_03552A.1 npts=6 Xarray=[0.5        0.95        0.98        1.02        1.05         1.5] Yarray=[1  1  0  0 -1 -1]
New XYCurve.CurveFor_InvForPV_0355.2_from_03552A.2 npts=6 Xarray=[0.5        0.95        0.98        1.02        1.05         1.5] Yarray=[1  1  0  0 -1 -1]
New XYCurve.CurveFor_InvForPV_0355.3_from_03552A.3 npts=6 Xarray=[0.5        0.95        0.98        1.02        1.05         1.5] Yarray=[1  1  0  0 -1 -1]
New XYCurve.CurveFor_InvForPV_0355.1_from_035511.1 npts=6 Xarray=[0.5        0.95        0.98        1.02        1.05         1.5] Yarray=[1  1  0  0 -1 -1]
New XYCurve.CurveFor_InvForPV_03552576.1_from_035511.1 npts=6 Xarray=[0.5        0.95        0.98        1.02        1.05         1.5] Yarray=[1  1  0  0 -1 -1]
New XYCurve.CurveFor_InvForPV_0355.1_from_035510A.1 npts=6 Xarray=[0.5        0.95        0.98        1.02        1.05         1.5] Yarray=[1  1  0  0 -1 -1]
New XYCurve.CurveFor_InvForPV_03552576.1_from_035510A.1 npts=6 Xarray=[0.5        0.95        0.98        1.02        1.05         1.5] Yarray=[1  1  0  0 -1 -1]
New XYCurve.CurveFor_InvForPV_0355.1_from_035512.1 npts=6 Xarray=[0.5        0.95        0.98        1.02        1.05         1.5] Yarray=[1  1  0  0 -1 -1]
New XYCurve.CurveFor_InvForPV_03552576.1_from_035512.1 npts=6 Xarray=[0.5        0.95        0.98        1.02        1.05         1.5] Yarray=[1  1  0  0 -1 -1]
New XYCurve.CurveFor_InvForPV_0355.2_from_035512.2 npts=6 Xarray=[0.5        0.95        0.98        1.02        1.05         1.5] Yarray=[1  1  0  0 -1 -1]
New XYCurve.CurveFor_InvForPV_03552576.2_from_035512.2 npts=6 Xarray=[0.5        0.95        0.98        1.02        1.05         1.5] Yarray=[1  1  0  0 -1 -1]
New XYCurve.CurveFor_InvForPV_0355.3_from_035512.3 npts=6 Xarray=[0.5        0.95        0.98        1.02        1.05         1.5] Yarray=[1  1  0  0 -1 -1]
New XYCurve.CurveFor_InvForPV_03552576.3_from_035512.3 npts=6 Xarray=[0.5        0.95        0.98        1.02        1.05         1.5] Yarray=[1  1  0  0 -1 -1]
New XYCurve.CurveFor_InvForPV_0355.1_from_03551201.1 npts=6 Xarray=[0.5        0.95        0.98        1.02        1.05         1.5] Yarray=[1  1  0  0 -1 -1]
New XYCurve.CurveFor_InvForPV_03552576.1_from_03551201.1 npts=6 Xarray=[0.5        0.95        0.98        1.02        1.05         1.5] Yarray=[1  1  0  0 -1 -1]
New XYCurve.CurveFor_InvForPV_0355.3_from_03551201.3 npts=6 Xarray=[0.5        0.95        0.98        1.02        1.05         1.5] Yarray=[1  1  0  0 -1 -1]
New XYCurve.CurveFor_InvForPV_03552576.3_from_03551201.3 npts=6 Xarray=[0.5        0.95        0.98        1.02        1.05         1.5] Yarray=[1  1  0  0 -1 -1]
New XYCurve.CurveFor_InvForPV_0355.1_from_03551306.1 npts=6 Xarray=[0.5        0.95        0.98        1.02        1.05         1.5] Yarray=[1  1  0  0 -1 -1]
New XYCurve.CurveFor_InvForPV_03552576.1_from_03551306.1 npts=6 Xarray=[0.5        0.95        0.98        1.02        1.05         1.5] Yarray=[1  1  0  0 -1 -1]
New XYCurve.CurveFor_InvForPV_0355.2_from_03551306.2 npts=6 Xarray=[0.5        0.95        0.98        1.02        1.05         1.5] Yarray=[1  1  0  0 -1 -1]
New XYCurve.CurveFor_InvForPV_03552576.2_from_03551306.2 npts=6 Xarray=[0.5        0.95        0.98        1.02        1.05         1.5] Yarray=[1  1  0  0 -1 -1]
New XYCurve.CurveFor_InvForPV_0355.3_from_03551306.3 npts=6 Xarray=[0.5        0.95        0.98        1.02        1.05         1.5] Yarray=[1  1  0  0 -1 -1]
New XYCurve.CurveFor_InvForPV_03552576.3_from_03551306.3 npts=6 Xarray=[0.5        0.95        0.98        1.02        1.05         1.5] Yarray=[1  1  0  0 -1 -1]
New XYCurve.CurveFor_InvForPV_0355.1_from_035514.1 npts=6 Xarray=[0.5        0.95        0.98        1.02        1.05         1.5] Yarray=[1  1  0  0 -1 -1]
New XYCurve.CurveFor_InvForPV_03552576.1_from_035514.1 npts=6 Xarray=[0.5        0.95        0.98        1.02        1.05         1.5] Yarray=[1  1  0  0 -1 -1]
New XYCurve.CurveFor_InvForPV_0355.2_from_035514.2 npts=6 Xarray=[0.5        0.95        0.98        1.02        1.05         1.5] Yarray=[1  1  0  0 -1 -1]
New XYCurve.CurveFor_InvForPV_03552576.2_from_035514.2 npts=6 Xarray=[0.5        0.95        0.98        1.02        1.05         1.5] Yarray=[1  1  0  0 -1 -1]
New XYCurve.CurveFor_InvForPV_0355.3_from_035514.3 npts=6 Xarray=[0.5        0.95        0.98        1.02        1.05         1.5] Yarray=[1  1  0  0 -1 -1]
New XYCurve.CurveFor_InvForPV_03552576.3_from_035514.3 npts=6 Xarray=[0.5        0.95        0.98        1.02        1.05         1.5] Yarray=[1  1  0  0 -1 -1]
New XYCurve.CurveFor_InvForPV_0355.1_from_035513A.1 npts=6 Xarray=[0.5        0.95        0.98        1.02        1.05         1.5] Yarray=[1  1  0  0 -1 -1]
New XYCurve.CurveFor_InvForPV_03552576.1_from_035513A.1 npts=6 Xarray=[0.5        0.95        0.98        1.02        1.05         1.5] Yarray=[1  1  0  0 -1 -1]
New XYCurve.CurveFor_InvForPV_0355.3_from_035513A.3 npts=6 Xarray=[0.5        0.95        0.98        1.02        1.05         1.5] Yarray=[1  1  0  0 -1 -1]
New XYCurve.CurveFor_InvForPV_03552576.3_from_035513A.3 npts=6 Xarray=[0.5        0.95        0.98        1.02        1.05         1.5] Yarray=[1  1  0  0 -1 -1]
New XYCurve.CurveFor_InvForPV_0355.1_from_03551306A.1 npts=6 Xarray=[0.5        0.95        0.98        1.02        1.05         1.5] Yarray=[1  1  0  0 -1 -1]
New XYCurve.CurveFor_InvForPV_03552576.1_from_03551306A.1 npts=6 Xarray=[0.5        0.95        0.98        1.02        1.05         1.5] Yarray=[1  1  0  0 -1 -1]
New XYCurve.CurveFor_InvForPV_0355.2_from_03551306A.2 npts=6 Xarray=[0.5        0.95        0.98        1.02        1.05         1.5] Yarray=[1  1  0  0 -1 -1]
New XYCurve.CurveFor_InvForPV_03552576.2_from_03551306A.2 npts=6 Xarray=[0.5        0.95        0.98        1.02        1.05         1.5] Yarray=[1  1  0  0 -1 -1]
New XYCurve.CurveFor_InvForPV_0355.3_from_03551306A.3 npts=6 Xarray=[0.5        0.95        0.98        1.02        1.05         1.5] Yarray=[1  1  0  0 -1 -1]
New XYCurve.CurveFor_InvForPV_03552576.3_from_03551306A.3 npts=6 Xarray=[0.5        0.95        0.98        1.02        1.05         1.5] Yarray=[1  1  0  0 -1 -1]
New XYCurve.CurveFor_InvForPV_0355.2_from_035515.2 npts=6 Xarray=[0.5        0.95        0.98        1.02        1.05         1.5] Yarray=[1  1  0  0 -1 -1]
New XYCurve.CurveFor_InvForPV_03552576.2_from_035515.2 npts=6 Xarray=[0.5        0.95        0.98        1.02        1.05         1.5] Yarray=[1  1  0  0 -1 -1]
New XYCurve.CurveFor_InvForPV_0355.3_from_035515.3 npts=6 Xarray=[0.5        0.95        0.98        1.02        1.05         1.5] Yarray=[1  1  0  0 -1 -1]
New XYCurve.CurveFor_InvForPV_03552576.3_from_035515.3 npts=6 Xarray=[0.5        0.95        0.98        1.02        1.05         1.5] Yarray=[1  1  0  0 -1 -1]
New XYCurve.CurveFor_InvForPV_0355.1_from_03551301.1 npts=6 Xarray=[0.5        0.95        0.98        1.02        1.05         1.5] Yarray=[1  1  0  0 -1 -1]
New XYCurve.CurveFor_InvForPV_03552576.1_from_03551301.1 npts=6 Xarray=[0.5        0.95        0.98        1.02        1.05         1.5] Yarray=[1  1  0  0 -1 -1]
New XYCurve.CurveFor_InvForPV_0355.3_from_03551301.3 npts=6 Xarray=[0.5        0.95        0.98        1.02        1.05         1.5] Yarray=[1  1  0  0 -1 -1]
New XYCurve.CurveFor_InvForPV_03552576.3_from_03551301.3 npts=6 Xarray=[0.5        0.95        0.98        1.02        1.05         1.5] Yarray=[1  1  0  0 -1 -1]
New XYCurve.CurveFor_InvForPV_0355.1_from_03551302.1 npts=6 Xarray=[0.5        0.95        0.98        1.02        1.05         1.5] Yarray=[1  1  0  0 -1 -1]
New XYCurve.CurveFor_InvForPV_03552576.1_from_03551302.1 npts=6 Xarray=[0.5        0.95        0.98        1.02        1.05         1.5] Yarray=[1  1  0  0 -1 -1]
New XYCurve.CurveFor_InvForPV_0355.3_from_03551302.3 npts=6 Xarray=[0.5        0.95        0.98        1.02        1.05         1.5] Yarray=[1  1  0  0 -1 -1]
New XYCurve.CurveFor_InvForPV_03552576.3_from_03551302.3 npts=6 Xarray=[0.5        0.95        0.98        1.02        1.05         1.5] Yarray=[1  1  0  0 -1 -1]
New XYCurve.CurveFor_InvForPV_0355.1_from_03551307.1 npts=6 Xarray=[0.5        0.95        0.98        1.02        1.05         1.5] Yarray=[1  1  0  0 -1 -1]
New XYCurve.CurveFor_InvForPV_03552576.1_from_03551307.1 npts=6 Xarray=[0.5        0.95        0.98        1.02        1.05         1.5] Yarray=[1  1  0  0 -1 -1]
New XYCurve.CurveFor_InvForPV_0355.3_from_03551307.3 npts=6 Xarray=[0.5        0.95        0.98        1.02        1.05         1.5] Yarray=[1  1  0  0 -1 -1]
New XYCurve.CurveFor_InvForPV_03552576.3_from_03551307.3 npts=6 Xarray=[0.5        0.95        0.98        1.02        1.05         1.5] Yarray=[1  1  0  0 -1 -1]
New XYCurve.CurveFor_InvForPV_0355.1_from_03551308.1 npts=6 Xarray=[0.5        0.95        0.98        1.02        1.05         1.5] Yarray=[1  1  0  0 -1 -1]
New XYCurve.CurveFor_InvForPV_03552576.1_from_03551308.1 npts=6 Xarray=[0.5        0.95        0.98        1.02        1.05         1.5] Yarray=[1  1  0  0 -1 -1]
New XYCurve.CurveFor_InvForPV_0355.2_from_03551308.2 npts=6 Xarray=[0.5        0.95        0.98        1.02        1.05         1.5] Yarray=[1  1  0  0 -1 -1]
New XYCurve.CurveFor_InvForPV_03552576.2_from_03551308.2 npts=6 Xarray=[0.5        0.95        0.98        1.02        1.05         1.5] Yarray=[1  1  0  0 -1 -1]
New XYCurve.CurveFor_InvForPV_0355.3_from_03551308.3 npts=6 Xarray=[0.5        0.95        0.98        1.02        1.05         1.5] Yarray=[1  1  0  0 -1 -1]
New XYCurve.CurveFor_InvForPV_03552576.3_from_03551308.3 npts=6 Xarray=[0.5        0.95        0.98        1.02        1.05         1.5] Yarray=[1  1  0  0 -1 -1]
New XYCurve.CurveFor_InvForPV_0355.1_from_03551308A.1 npts=6 Xarray=[0.5        0.95        0.98        1.02        1.05         1.5] Yarray=[1  1  0  0 -1 -1]
New XYCurve.CurveFor_InvForPV_03552576.1_from_03551308A.1 npts=6 Xarray=[0.5        0.95        0.98        1.02        1.05         1.5] Yarray=[1  1  0  0 -1 -1]
New XYCurve.CurveFor_InvForPV_0355.3_from_03551308A.3 npts=6 Xarray=[0.5        0.95        0.98        1.02        1.05         1.5] Yarray=[1  1  0  0 -1 -1]
New XYCurve.CurveFor_InvForPV_03552576.3_from_03551308A.3 npts=6 Xarray=[0.5        0.95        0.98        1.02        1.05         1.5] Yarray=[1  1  0  0 -1 -1]
New XYCurve.CurveFor_InvForPV_0355.1_from_03551315.1 npts=6 Xarray=[0.5        0.95        0.98        1.02        1.05         1.5] Yarray=[1  1  0  0 -1 -1]
New XYCurve.CurveFor_InvForPV_03552576.1_from_03551315.1 npts=6 Xarray=[0.5        0.95        0.98        1.02        1.05         1.5] Yarray=[1  1  0  0 -1 -1]
New XYCurve.CurveFor_InvForPV_0355.3_from_03551315.3 npts=6 Xarray=[0.5        0.95        0.98        1.02        1.05         1.5] Yarray=[1  1  0  0 -1 -1]
New XYCurve.CurveFor_InvForPV_03552576.3_from_03551315.3 npts=6 Xarray=[0.5        0.95        0.98        1.02        1.05         1.5] Yarray=[1  1  0  0 -1 -1]
New XYCurve.CurveFor_InvForPV_0355.1_from_03551309.1 npts=6 Xarray=[0.5        0.95        0.98        1.02        1.05         1.5] Yarray=[1  1  0  0 -1 -1]
New XYCurve.CurveFor_InvForPV_03552576.1_from_03551309.1 npts=6 Xarray=[0.5        0.95        0.98        1.02        1.05         1.5] Yarray=[1  1  0  0 -1 -1]
New XYCurve.CurveFor_InvForPV_0355.3_from_03551309.3 npts=6 Xarray=[0.5        0.95        0.98        1.02        1.05         1.5] Yarray=[1  1  0  0 -1 -1]
New XYCurve.CurveFor_InvForPV_03552576.3_from_03551309.3 npts=6 Xarray=[0.5        0.95        0.98        1.02        1.05         1.5] Yarray=[1  1  0  0 -1 -1]
New XYCurve.CurveFor_InvForPV_0355.1_from_03551310.1 npts=6 Xarray=[0.5        0.95        0.98        1.02        1.05         1.5] Yarray=[1  1  0  0 -1 -1]
New XYCurve.CurveFor_InvForPV_03552576.1_from_03551310.1 npts=6 Xarray=[0.5        0.95        0.98        1.02        1.05         1.5] Yarray=[1  1  0  0 -1 -1]
New XYCurve.CurveFor_InvForPV_0355.3_from_03551310.3 npts=6 Xarray=[0.5        0.95        0.98        1.02        1.05         1.5] Yarray=[1  1  0  0 -1 -1]
New XYCurve.CurveFor_InvForPV_03552576.3_from_03551310.3 npts=6 Xarray=[0.5        0.95        0.98        1.02        1.05         1.5] Yarray=[1  1  0  0 -1 -1]
New XYCurve.CurveFor_InvForPV_0355.1_from_03551311.1 npts=6 Xarray=[0.5        0.95        0.98        1.02        1.05         1.5] Yarray=[1  1  0  0 -1 -1]
New XYCurve.CurveFor_InvForPV_03552576.1_from_03551311.1 npts=6 Xarray=[0.5        0.95        0.98        1.02        1.05         1.5] Yarray=[1  1  0  0 -1 -1]
New XYCurve.CurveFor_InvForPV_0355.3_from_03551311.3 npts=6 Xarray=[0.5        0.95        0.98        1.02        1.05         1.5] Yarray=[1  1  0  0 -1 -1]
New XYCurve.CurveFor_InvForPV_03552576.3_from_03551311.3 npts=6 Xarray=[0.5        0.95        0.98        1.02        1.05         1.5] Yarray=[1  1  0  0 -1 -1]
New XYCurve.CurveFor_InvForPV_0355.2_from_03551367A.2 npts=6 Xarray=[0.5        0.95        0.98        1.02        1.05         1.5] Yarray=[1  1  0  0 -1 -1]
New XYCurve.CurveFor_InvForPV_03552576.2_from_03551367A.2 npts=6 Xarray=[0.5        0.95        0.98        1.02        1.05         1.5] Yarray=[1  1  0  0 -1 -1]
New XYCurve.CurveFor_InvForPV_0355.3_from_03551367A.3 npts=6 Xarray=[0.5        0.95        0.98        1.02        1.05         1.5] Yarray=[1  1  0  0 -1 -1]
New XYCurve.CurveFor_InvForPV_03552576.3_from_03551367A.3 npts=6 Xarray=[0.5        0.95        0.98        1.02        1.05         1.5] Yarray=[1  1  0  0 -1 -1]
New XYCurve.CurveFor_InvForPV_0355.2_from_03551317.2 npts=6 Xarray=[0.5        0.95        0.98        1.02        1.05         1.5] Yarray=[1  1  0  0 -1 -1]
New XYCurve.CurveFor_InvForPV_03552576.2_from_03551317.2 npts=6 Xarray=[0.5        0.95        0.98        1.02        1.05         1.5] Yarray=[1  1  0  0 -1 -1]
New XYCurve.CurveFor_InvForPV_0355.3_from_03551317.3 npts=6 Xarray=[0.5        0.95        0.98        1.02        1.05         1.5] Yarray=[1  1  0  0 -1 -1]
New XYCurve.CurveFor_InvForPV_03552576.3_from_03551317.3 npts=6 Xarray=[0.5        0.95        0.98        1.02        1.05         1.5] Yarray=[1  1  0  0 -1 -1]
New XYCurve.CurveFor_InvForPV_0355.1_from_03551319.1 npts=6 Xarray=[0.5        0.95        0.98        1.02        1.05         1.5] Yarray=[1  1  0  0 -1 -1]
New XYCurve.CurveFor_InvForPV_03552576.1_from_03551319.1 npts=6 Xarray=[0.5        0.95        0.98        1.02        1.05         1.5] Yarray=[1  1  0  0 -1 -1]
New XYCurve.CurveFor_InvForPV_0355.3_from_03551319.3 npts=6 Xarray=[0.5        0.95        0.98        1.02        1.05         1.5] Yarray=[1  1  0  0 -1 -1]
New XYCurve.CurveFor_InvForPV_03552576.3_from_03551319.3 npts=6 Xarray=[0.5        0.95        0.98        1.02        1.05         1.5] Yarray=[1  1  0  0 -1 -1]
New XYCurve.CurveFor_InvForPV_0355.1_from_03551365.1 npts=6 Xarray=[0.5        0.95        0.98        1.02        1.05         1.5] Yarray=[1  1  0  0 -1 -1]
New XYCurve.CurveFor_InvForPV_03552576.1_from_03551365.1 npts=6 Xarray=[0.5        0.95        0.98        1.02        1.05         1.5] Yarray=[1  1  0  0 -1 -1]
New XYCurve.CurveFor_InvForPV_0355.3_from_03551365.3 npts=6 Xarray=[0.5        0.95        0.98        1.02        1.05         1.5] Yarray=[1  1  0  0 -1 -1]
New XYCurve.CurveFor_InvForPV_03552576.3_from_03551365.3 npts=6 Xarray=[0.5        0.95        0.98        1.02        1.05         1.5] Yarray=[1  1  0  0 -1 -1]
New XYCurve.CurveFor_InvForPV_0355.1_from_03551320.1 npts=6 Xarray=[0.5        0.95        0.98        1.02        1.05         1.5] Yarray=[1  1  0  0 -1 -1]
New XYCurve.CurveFor_InvForPV_03552576.1_from_03551320.1 npts=6 Xarray=[0.5        0.95        0.98        1.02        1.05         1.5] Yarray=[1  1  0  0 -1 -1]
New XYCurve.CurveFor_InvForPV_0355.2_from_03551320.2 npts=6 Xarray=[0.5        0.95        0.98        1.02        1.05         1.5] Yarray=[1  1  0  0 -1 -1]
New XYCurve.CurveFor_InvForPV_03552576.2_from_03551320.2 npts=6 Xarray=[0.5        0.95        0.98        1.02        1.05         1.5] Yarray=[1  1  0  0 -1 -1]
New XYCurve.CurveFor_InvForPV_0355.3_from_03551320.3 npts=6 Xarray=[0.5        0.95        0.98        1.02        1.05         1.5] Yarray=[1  1  0  0 -1 -1]
New XYCurve.CurveFor_InvForPV_03552576.3_from_03551320.3 npts=6 Xarray=[0.5        0.95        0.98        1.02        1.05         1.5] Yarray=[1  1  0  0 -1 -1]
New XYCurve.CurveFor_InvForPV_0355.1_from_03551321.1 npts=6 Xarray=[0.5        0.95        0.98        1.02        1.05         1.5] Yarray=[1  1  0  0 -1 -1]
New XYCurve.CurveFor_InvForPV_03552576.1_from_03551321.1 npts=6 Xarray=[0.5        0.95        0.98        1.02        1.05         1.5] Yarray=[1  1  0  0 -1 -1]
New XYCurve.CurveFor_InvForPV_0355.2_from_03551321.2 npts=6 Xarray=[0.5        0.95        0.98        1.02        1.05         1.5] Yarray=[1  1  0  0 -1 -1]
New XYCurve.CurveFor_InvForPV_03552576.2_from_03551321.2 npts=6 Xarray=[0.5        0.95        0.98        1.02        1.05         1.5] Yarray=[1  1  0  0 -1 -1]
New XYCurve.CurveFor_InvForPV_0355.3_from_03551321.3 npts=6 Xarray=[0.5        0.95        0.98        1.02        1.05         1.5] Yarray=[1  1  0  0 -1 -1]
New XYCurve.CurveFor_InvForPV_03552576.3_from_03551321.3 npts=6 Xarray=[0.5        0.95        0.98        1.02        1.05         1.5] Yarray=[1  1  0  0 -1 -1]
New XYCurve.CurveFor_InvForPV_0355.1_from_03551322.1 npts=6 Xarray=[0.5        0.95        0.98        1.02        1.05         1.5] Yarray=[1  1  0  0 -1 -1]
New XYCurve.CurveFor_InvForPV_03552576.1_from_03551322.1 npts=6 Xarray=[0.5        0.95        0.98        1.02        1.05         1.5] Yarray=[1  1  0  0 -1 -1]
New XYCurve.CurveFor_InvForPV_0355.3_from_03551322.3 npts=6 Xarray=[0.5        0.95        0.98        1.02        1.05         1.5] Yarray=[1  1  0  0 -1 -1]
New XYCurve.CurveFor_InvForPV_03552576.3_from_03551322.3 npts=6 Xarray=[0.5        0.95        0.98        1.02        1.05         1.5] Yarray=[1  1  0  0 -1 -1]
New XYCurve.CurveFor_InvForPV_0355.1_from_03551323.1 npts=6 Xarray=[0.5        0.95        0.98        1.02        1.05         1.5] Yarray=[1  1  0  0 -1 -1]
New XYCurve.CurveFor_InvForPV_03552576.1_from_03551323.1 npts=6 Xarray=[0.5        0.95        0.98        1.02        1.05         1.5] Yarray=[1  1  0  0 -1 -1]
New XYCurve.CurveFor_InvForPV_0355.2_from_03551323.2 npts=6 Xarray=[0.5        0.95        0.98        1.02        1.05         1.5] Yarray=[1  1  0  0 -1 -1]
New XYCurve.CurveFor_InvForPV_03552576.2_from_03551323.2 npts=6 Xarray=[0.5        0.95        0.98        1.02        1.05         1.5] Yarray=[1  1  0  0 -1 -1]
New XYCurve.CurveFor_InvForPV_0355.3_from_03551323.3 npts=6 Xarray=[0.5        0.95        0.98        1.02        1.05         1.5] Yarray=[1  1  0  0 -1 -1]
New XYCurve.CurveFor_InvForPV_03552576.3_from_03551323.3 npts=6 Xarray=[0.5        0.95        0.98        1.02        1.05         1.5] Yarray=[1  1  0  0 -1 -1]
New XYCurve.CurveFor_InvForPV_0355.1_from_03551324.1 npts=6 Xarray=[0.5        0.95        0.98        1.02        1.05         1.5] Yarray=[1  1  0  0 -1 -1]
New XYCurve.CurveFor_InvForPV_03552576.1_from_03551324.1 npts=6 Xarray=[0.5        0.95        0.98        1.02        1.05         1.5] Yarray=[1  1  0  0 -1 -1]
New XYCurve.CurveFor_InvForPV_0355.3_from_03551324.3 npts=6 Xarray=[0.5        0.95        0.98        1.02        1.05         1.5] Yarray=[1  1  0  0 -1 -1]
New XYCurve.CurveFor_InvForPV_03552576.3_from_03551324.3 npts=6 Xarray=[0.5        0.95        0.98        1.02        1.05         1.5] Yarray=[1  1  0  0 -1 -1]
New XYCurve.CurveFor_InvForPV_0355.1_from_03551326.1 npts=6 Xarray=[0.5        0.95        0.98        1.02        1.05         1.5] Yarray=[1  1  0  0 -1 -1]
New XYCurve.CurveFor_InvForPV_03552576.1_from_03551326.1 npts=6 Xarray=[0.5        0.95        0.98        1.02        1.05         1.5] Yarray=[1  1  0  0 -1 -1]
New XYCurve.CurveFor_InvForPV_0355.2_from_03551326.2 npts=6 Xarray=[0.5        0.95        0.98        1.02        1.05         1.5] Yarray=[1  1  0  0 -1 -1]
New XYCurve.CurveFor_InvForPV_03552576.2_from_03551326.2 npts=6 Xarray=[0.5        0.95        0.98        1.02        1.05         1.5] Yarray=[1  1  0  0 -1 -1]
New XYCurve.CurveFor_InvForPV_0355.1_from_03551325.1 npts=6 Xarray=[0.5        0.95        0.98        1.02        1.05         1.5] Yarray=[1  1  0  0 -1 -1]
New XYCurve.CurveFor_InvForPV_03552576.1_from_03551325.1 npts=6 Xarray=[0.5        0.95        0.98        1.02        1.05         1.5] Yarray=[1  1  0  0 -1 -1]
New XYCurve.CurveFor_InvForPV_0355.2_from_03551325.2 npts=6 Xarray=[0.5        0.95        0.98        1.02        1.05         1.5] Yarray=[1  1  0  0 -1 -1]
New XYCurve.CurveFor_InvForPV_03552576.2_from_03551325.2 npts=6 Xarray=[0.5        0.95        0.98        1.02        1.05         1.5] Yarray=[1  1  0  0 -1 -1]
New XYCurve.CurveFor_InvForPV_0355.3_from_03551325.3 npts=6 Xarray=[0.5        0.95        0.98        1.02        1.05         1.5] Yarray=[1  1  0  0 -1 -1]
New XYCurve.CurveFor_InvForPV_03552576.3_from_03551325.3 npts=6 Xarray=[0.5        0.95        0.98        1.02        1.05         1.5] Yarray=[1  1  0  0 -1 -1]
New XYCurve.CurveFor_InvForPV_0355.1_from_03551327.1 npts=6 Xarray=[0.5        0.95        0.98        1.02        1.05         1.5] Yarray=[1  1  0  0 -1 -1]
New XYCurve.CurveFor_InvForPV_03552576.1_from_03551327.1 npts=6 Xarray=[0.5        0.95        0.98        1.02        1.05         1.5] Yarray=[1  1  0  0 -1 -1]
New XYCurve.CurveFor_InvForPV_0355.2_from_03551327.2 npts=6 Xarray=[0.5        0.95        0.98        1.02        1.05         1.5] Yarray=[1  1  0  0 -1 -1]
New XYCurve.CurveFor_InvForPV_03552576.2_from_03551327.2 npts=6 Xarray=[0.5        0.95        0.98        1.02        1.05         1.5] Yarray=[1  1  0  0 -1 -1]
New XYCurve.CurveFor_InvForPV_0355.2_from_03551349.2 npts=6 Xarray=[0.5        0.95        0.98        1.02        1.05         1.5] Yarray=[1  1  0  0 -1 -1]
New XYCurve.CurveFor_InvForPV_03552576.2_from_03551349.2 npts=6 Xarray=[0.5        0.95        0.98        1.02        1.05         1.5] Yarray=[1  1  0  0 -1 -1]
New XYCurve.CurveFor_InvForPV_0355.3_from_03551349.3 npts=6 Xarray=[0.5        0.95        0.98        1.02        1.05         1.5] Yarray=[1  1  0  0 -1 -1]
New XYCurve.CurveFor_InvForPV_03552576.3_from_03551349.3 npts=6 Xarray=[0.5        0.95        0.98        1.02        1.05         1.5] Yarray=[1  1  0  0 -1 -1]
New XYCurve.CurveFor_InvForPV_0355.1_from_03551335.1 npts=6 Xarray=[0.5        0.95        0.98        1.02        1.05         1.5] Yarray=[1  1  0  0 -1 -1]
New XYCurve.CurveFor_InvForPV_03552576.1_from_03551335.1 npts=6 Xarray=[0.5        0.95        0.98        1.02        1.05         1.5] Yarray=[1  1  0  0 -1 -1]
New XYCurve.CurveFor_InvForPV_0355.2_from_03551335.2 npts=6 Xarray=[0.5        0.95        0.98        1.02        1.05         1.5] Yarray=[1  1  0  0 -1 -1]
New XYCurve.CurveFor_InvForPV_03552576.2_from_03551335.2 npts=6 Xarray=[0.5        0.95        0.98        1.02        1.05         1.5] Yarray=[1  1  0  0 -1 -1]
New XYCurve.CurveFor_InvForPV_0355.1_from_03551346.1 npts=6 Xarray=[0.5        0.95        0.98        1.02        1.05         1.5] Yarray=[1  1  0  0 -1 -1]
New XYCurve.CurveFor_InvForPV_03552576.1_from_03551346.1 npts=6 Xarray=[0.5        0.95        0.98        1.02        1.05         1.5] Yarray=[1  1  0  0 -1 -1]
New XYCurve.CurveFor_InvForPV_0355.2_from_03551346.2 npts=6 Xarray=[0.5        0.95        0.98        1.02        1.05         1.5] Yarray=[1  1  0  0 -1 -1]
New XYCurve.CurveFor_InvForPV_03552576.2_from_03551346.2 npts=6 Xarray=[0.5        0.95        0.98        1.02        1.05         1.5] Yarray=[1  1  0  0 -1 -1]
New XYCurve.CurveFor_InvForPV_0355.1_from_03551328A.1 npts=6 Xarray=[0.5        0.95        0.98        1.02        1.05         1.5] Yarray=[1  1  0  0 -1 -1]
New XYCurve.CurveFor_InvForPV_03552576.1_from_03551328A.1 npts=6 Xarray=[0.5        0.95        0.98        1.02        1.05         1.5] Yarray=[1  1  0  0 -1 -1]
New XYCurve.CurveFor_InvForPV_0355.1_from_03551329.1 npts=6 Xarray=[0.5        0.95        0.98        1.02        1.05         1.5] Yarray=[1  1  0  0 -1 -1]
New XYCurve.CurveFor_InvForPV_03552576.1_from_03551329.1 npts=6 Xarray=[0.5        0.95        0.98        1.02        1.05         1.5] Yarray=[1  1  0  0 -1 -1]
New XYCurve.CurveFor_InvForPV_0355.1_from_03551330.1 npts=6 Xarray=[0.5        0.95        0.98        1.02        1.05         1.5] Yarray=[1  1  0  0 -1 -1]
New XYCurve.CurveFor_InvForPV_03552576.1_from_03551330.1 npts=6 Xarray=[0.5        0.95        0.98        1.02        1.05         1.5] Yarray=[1  1  0  0 -1 -1]
New XYCurve.CurveFor_InvForPV_0355.1_from_03551331.1 npts=6 Xarray=[0.5        0.95        0.98        1.02        1.05         1.5] Yarray=[1  1  0  0 -1 -1]
New XYCurve.CurveFor_InvForPV_03552576.1_from_03551331.1 npts=6 Xarray=[0.5        0.95        0.98        1.02        1.05         1.5] Yarray=[1  1  0  0 -1 -1]
New XYCurve.CurveFor_InvForPV_0355.1_from_03551336.1 npts=6 Xarray=[0.5        0.95        0.98        1.02        1.05         1.5] Yarray=[1  1  0  0 -1 -1]
New XYCurve.CurveFor_InvForPV_03552576.1_from_03551336.1 npts=6 Xarray=[0.5        0.95        0.98        1.02        1.05         1.5] Yarray=[1  1  0  0 -1 -1]
New XYCurve.CurveFor_InvForPV_0355.2_from_03551336.2 npts=6 Xarray=[0.5        0.95        0.98        1.02        1.05         1.5] Yarray=[1  1  0  0 -1 -1]
New XYCurve.CurveFor_InvForPV_03552576.2_from_03551336.2 npts=6 Xarray=[0.5        0.95        0.98        1.02        1.05         1.5] Yarray=[1  1  0  0 -1 -1]
New XYCurve.CurveFor_InvForPV_0355.1_from_03551337.1 npts=6 Xarray=[0.5        0.95        0.98        1.02        1.05         1.5] Yarray=[1  1  0  0 -1 -1]
New XYCurve.CurveFor_InvForPV_03552576.1_from_03551337.1 npts=6 Xarray=[0.5        0.95        0.98        1.02        1.05         1.5] Yarray=[1  1  0  0 -1 -1]
New XYCurve.CurveFor_InvForPV_0355.2_from_03551337.2 npts=6 Xarray=[0.5        0.95        0.98        1.02        1.05         1.5] Yarray=[1  1  0  0 -1 -1]
New XYCurve.CurveFor_InvForPV_03552576.2_from_03551337.2 npts=6 Xarray=[0.5        0.95        0.98        1.02        1.05         1.5] Yarray=[1  1  0  0 -1 -1]
New XYCurve.CurveFor_InvForPV_0355.1_from_03551339.1 npts=6 Xarray=[0.5        0.95        0.98        1.02        1.05         1.5] Yarray=[1  1  0  0 -1 -1]
New XYCurve.CurveFor_InvForPV_03552576.1_from_03551339.1 npts=6 Xarray=[0.5        0.95        0.98        1.02        1.05         1.5] Yarray=[1  1  0  0 -1 -1]
New XYCurve.CurveFor_InvForPV_0355.2_from_03551339.2 npts=6 Xarray=[0.5        0.95        0.98        1.02        1.05         1.5] Yarray=[1  1  0  0 -1 -1]
New XYCurve.CurveFor_InvForPV_03552576.2_from_03551339.2 npts=6 Xarray=[0.5        0.95        0.98        1.02        1.05         1.5] Yarray=[1  1  0  0 -1 -1]
New XYCurve.CurveFor_InvForPV_0355.1_from_03551342.1 npts=6 Xarray=[0.5        0.95        0.98        1.02        1.05         1.5] Yarray=[1  1  0  0 -1 -1]
New XYCurve.CurveFor_InvForPV_03552576.1_from_03551342.1 npts=6 Xarray=[0.5        0.95        0.98        1.02        1.05         1.5] Yarray=[1  1  0  0 -1 -1]
New XYCurve.CurveFor_InvForPV_0355.2_from_03551342.2 npts=6 Xarray=[0.5        0.95        0.98        1.02        1.05         1.5] Yarray=[1  1  0  0 -1 -1]
New XYCurve.CurveFor_InvForPV_03552576.2_from_03551342.2 npts=6 Xarray=[0.5        0.95        0.98        1.02        1.05         1.5] Yarray=[1  1  0  0 -1 -1]
New XYCurve.CurveFor_InvForPV_0355.1_from_03551337A.1 npts=6 Xarray=[0.5        0.95        0.98        1.02        1.05         1.5] Yarray=[1  1  0  0 -1 -1]
New XYCurve.CurveFor_InvForPV_03552576.1_from_03551337A.1 npts=6 Xarray=[0.5        0.95        0.98        1.02        1.05         1.5] Yarray=[1  1  0  0 -1 -1]
New XYCurve.CurveFor_InvForPV_0355.2_from_03551337A.2 npts=6 Xarray=[0.5        0.95        0.98        1.02        1.05         1.5] Yarray=[1  1  0  0 -1 -1]
New XYCurve.CurveFor_InvForPV_03552576.2_from_03551337A.2 npts=6 Xarray=[0.5        0.95        0.98        1.02        1.05         1.5] Yarray=[1  1  0  0 -1 -1]
New XYCurve.CurveFor_InvForPV_0355.1_from_03551340.1 npts=6 Xarray=[0.5        0.95        0.98        1.02        1.05         1.5] Yarray=[1  1  0  0 -1 -1]
New XYCurve.CurveFor_InvForPV_03552576.1_from_03551340.1 npts=6 Xarray=[0.5        0.95        0.98        1.02        1.05         1.5] Yarray=[1  1  0  0 -1 -1]
New XYCurve.CurveFor_InvForPV_0355.2_from_03551340.2 npts=6 Xarray=[0.5        0.95        0.98        1.02        1.05         1.5] Yarray=[1  1  0  0 -1 -1]
New XYCurve.CurveFor_InvForPV_03552576.2_from_03551340.2 npts=6 Xarray=[0.5        0.95        0.98        1.02        1.05         1.5] Yarray=[1  1  0  0 -1 -1]
New XYCurve.CurveFor_InvForPV_0355.1_from_03551343.1 npts=6 Xarray=[0.5        0.95        0.98        1.02        1.05         1.5] Yarray=[1  1  0  0 -1 -1]
New XYCurve.CurveFor_InvForPV_03552576.1_from_03551343.1 npts=6 Xarray=[0.5        0.95        0.98        1.02        1.05         1.5] Yarray=[1  1  0  0 -1 -1]
New XYCurve.CurveFor_InvForPV_0355.2_from_03551343.2 npts=6 Xarray=[0.5        0.95        0.98        1.02        1.05         1.5] Yarray=[1  1  0  0 -1 -1]
New XYCurve.CurveFor_InvForPV_03552576.2_from_03551343.2 npts=6 Xarray=[0.5        0.95        0.98        1.02        1.05         1.5] Yarray=[1  1  0  0 -1 -1]
New XYCurve.CurveFor_InvForPV_0355.1_from_03551341.1 npts=6 Xarray=[0.5        0.95        0.98        1.02        1.05         1.5] Yarray=[1  1  0  0 -1 -1]
New XYCurve.CurveFor_InvForPV_03552576.1_from_03551341.1 npts=6 Xarray=[0.5        0.95        0.98        1.02        1.05         1.5] Yarray=[1  1  0  0 -1 -1]
New XYCurve.CurveFor_InvForPV_0355.2_from_03551341.2 npts=6 Xarray=[0.5        0.95        0.98        1.02        1.05         1.5] Yarray=[1  1  0  0 -1 -1]
New XYCurve.CurveFor_InvForPV_03552576.2_from_03551341.2 npts=6 Xarray=[0.5        0.95        0.98        1.02        1.05         1.5] Yarray=[1  1  0  0 -1 -1]
New XYCurve.CurveFor_InvForPV_0355.2_from_03551350.2 npts=6 Xarray=[0.5        0.95        0.98        1.02        1.05         1.5] Yarray=[1  1  0  0 -1 -1]
New XYCurve.CurveFor_InvForPV_03552576.2_from_03551350.2 npts=6 Xarray=[0.5        0.95        0.98        1.02        1.05         1.5] Yarray=[1  1  0  0 -1 -1]
New XYCurve.CurveFor_InvForPV_0355.3_from_03551350.3 npts=6 Xarray=[0.5        0.95        0.98        1.02        1.05         1.5] Yarray=[1  1  0  0 -1 -1]
New XYCurve.CurveFor_InvForPV_03552576.3_from_03551350.3 npts=6 Xarray=[0.5        0.95        0.98        1.02        1.05         1.5] Yarray=[1  1  0  0 -1 -1]
New XYCurve.CurveFor_InvForPV_0355.2_from_03551356.2 npts=6 Xarray=[0.5        0.95        0.98        1.02        1.05         1.5] Yarray=[1  1  0  0 -1 -1]
New XYCurve.CurveFor_InvForPV_03552576.2_from_03551356.2 npts=6 Xarray=[0.5        0.95        0.98        1.02        1.05         1.5] Yarray=[1  1  0  0 -1 -1]
New XYCurve.CurveFor_InvForPV_0355.3_from_03551356.3 npts=6 Xarray=[0.5        0.95        0.98        1.02        1.05         1.5] Yarray=[1  1  0  0 -1 -1]
New XYCurve.CurveFor_InvForPV_03552576.3_from_03551356.3 npts=6 Xarray=[0.5        0.95        0.98        1.02        1.05         1.5] Yarray=[1  1  0  0 -1 -1]
New XYCurve.CurveFor_InvForPV_0355.2_from_03551350A.2 npts=6 Xarray=[0.5        0.95        0.98        1.02        1.05         1.5] Yarray=[1  1  0  0 -1 -1]
New XYCurve.CurveFor_InvForPV_03552576.2_from_03551350A.2 npts=6 Xarray=[0.5        0.95        0.98        1.02        1.05         1.5] Yarray=[1  1  0  0 -1 -1]
New XYCurve.CurveFor_InvForPV_0355.3_from_03551350A.3 npts=6 Xarray=[0.5        0.95        0.98        1.02        1.05         1.5] Yarray=[1  1  0  0 -1 -1]
New XYCurve.CurveFor_InvForPV_03552576.3_from_03551350A.3 npts=6 Xarray=[0.5        0.95        0.98        1.02        1.05         1.5] Yarray=[1  1  0  0 -1 -1]
New XYCurve.CurveFor_InvForPV_0355.2_from_03551357.2 npts=6 Xarray=[0.5        0.95        0.98        1.02        1.05         1.5] Yarray=[1  1  0  0 -1 -1]
New XYCurve.CurveFor_InvForPV_03552576.2_from_03551357.2 npts=6 Xarray=[0.5        0.95        0.98        1.02        1.05         1.5] Yarray=[1  1  0  0 -1 -1]
New XYCurve.CurveFor_InvForPV_0355.3_from_03551357.3 npts=6 Xarray=[0.5        0.95        0.98        1.02        1.05         1.5] Yarray=[1  1  0  0 -1 -1]
New XYCurve.CurveFor_InvForPV_03552576.3_from_03551357.3 npts=6 Xarray=[0.5        0.95        0.98        1.02        1.05         1.5] Yarray=[1  1  0  0 -1 -1]
New XYCurve.CurveFor_InvForPV_0355.2_from_03551353.2 npts=6 Xarray=[0.5        0.95        0.98        1.02        1.05         1.5] Yarray=[1  1  0  0 -1 -1]
New XYCurve.CurveFor_InvForPV_03552576.2_from_03551353.2 npts=6 Xarray=[0.5        0.95        0.98        1.02        1.05         1.5] Yarray=[1  1  0  0 -1 -1]
New XYCurve.CurveFor_InvForPV_0355.3_from_03551353.3 npts=6 Xarray=[0.5        0.95        0.98        1.02        1.05         1.5] Yarray=[1  1  0  0 -1 -1]
New XYCurve.CurveFor_InvForPV_03552576.3_from_03551353.3 npts=6 Xarray=[0.5        0.95        0.98        1.02        1.05         1.5] Yarray=[1  1  0  0 -1 -1]
New XYCurve.CurveFor_InvForPV_0355.2_from_03551354.2 npts=6 Xarray=[0.5        0.95        0.98        1.02        1.05         1.5] Yarray=[1  1  0  0 -1 -1]
New XYCurve.CurveFor_InvForPV_03552576.2_from_03551354.2 npts=6 Xarray=[0.5        0.95        0.98        1.02        1.05         1.5] Yarray=[1  1  0  0 -1 -1]
New XYCurve.CurveFor_InvForPV_0355.3_from_03551354.3 npts=6 Xarray=[0.5        0.95        0.98        1.02        1.05         1.5] Yarray=[1  1  0  0 -1 -1]
New XYCurve.CurveFor_InvForPV_03552576.3_from_03551354.3 npts=6 Xarray=[0.5        0.95        0.98        1.02        1.05         1.5] Yarray=[1  1  0  0 -1 -1]
New XYCurve.CurveFor_InvForPV_0355.2_from_03551358.2 npts=6 Xarray=[0.5        0.95        0.98        1.02        1.05         1.5] Yarray=[1  1  0  0 -1 -1]
New XYCurve.CurveFor_InvForPV_03552576.2_from_03551358.2 npts=6 Xarray=[0.5        0.95        0.98        1.02        1.05         1.5] Yarray=[1  1  0  0 -1 -1]
New XYCurve.CurveFor_InvForPV_0355.3_from_03551358.3 npts=6 Xarray=[0.5        0.95        0.98        1.02        1.05         1.5] Yarray=[1  1  0  0 -1 -1]
New XYCurve.CurveFor_InvForPV_03552576.3_from_03551358.3 npts=6 Xarray=[0.5        0.95        0.98        1.02        1.05         1.5] Yarray=[1  1  0  0 -1 -1]
New XYCurve.CurveFor_InvForPV_0355.2_from_03551361.2 npts=6 Xarray=[0.5        0.95        0.98        1.02        1.05         1.5] Yarray=[1  1  0  0 -1 -1]
New XYCurve.CurveFor_InvForPV_03552576.2_from_03551361.2 npts=6 Xarray=[0.5        0.95        0.98        1.02        1.05         1.5] Yarray=[1  1  0  0 -1 -1]
New XYCurve.CurveFor_InvForPV_0355.3_from_03551361.3 npts=6 Xarray=[0.5        0.95        0.98        1.02        1.05         1.5] Yarray=[1  1  0  0 -1 -1]
New XYCurve.CurveFor_InvForPV_03552576.3_from_03551361.3 npts=6 Xarray=[0.5        0.95        0.98        1.02        1.05         1.5] Yarray=[1  1  0  0 -1 -1]
New XYCurve.CurveFor_InvForPV_0355.2_from_03551362.2 npts=6 Xarray=[0.5        0.95        0.98        1.02        1.05         1.5] Yarray=[1  1  0  0 -1 -1]
New XYCurve.CurveFor_InvForPV_03552576.2_from_03551362.2 npts=6 Xarray=[0.5        0.95        0.98        1.02        1.05         1.5] Yarray=[1  1  0  0 -1 -1]
New XYCurve.CurveFor_InvForPV_0355.3_from_03551362.3 npts=6 Xarray=[0.5        0.95        0.98        1.02        1.05         1.5] Yarray=[1  1  0  0 -1 -1]
New XYCurve.CurveFor_InvForPV_03552576.3_from_03551362.3 npts=6 Xarray=[0.5        0.95        0.98        1.02        1.05         1.5] Yarray=[1  1  0  0 -1 -1]
New XYCurve.CurveFor_InvForPV_0355.2_from_03551368.2 npts=6 Xarray=[0.5        0.95        0.98        1.02        1.05         1.5] Yarray=[1  1  0  0 -1 -1]
New XYCurve.CurveFor_InvForPV_03552576.2_from_03551368.2 npts=6 Xarray=[0.5        0.95        0.98        1.02        1.05         1.5] Yarray=[1  1  0  0 -1 -1]
New XYCurve.CurveFor_InvForPV_0355.3_from_03551368.3 npts=6 Xarray=[0.5        0.95        0.98        1.02        1.05         1.5] Yarray=[1  1  0  0 -1 -1]
New XYCurve.CurveFor_InvForPV_03552576.3_from_03551368.3 npts=6 Xarray=[0.5        0.95        0.98        1.02        1.05         1.5] Yarray=[1  1  0  0 -1 -1]
New XYCurve.CurveFor_InvForPV_0355.2_from_03551369.2 npts=6 Xarray=[0.5        0.95        0.98        1.02        1.05         1.5] Yarray=[1  1  0  0 -1 -1]
New XYCurve.CurveFor_InvForPV_03552576.2_from_03551369.2 npts=6 Xarray=[0.5        0.95        0.98        1.02        1.05         1.5] Yarray=[1  1  0  0 -1 -1]
New XYCurve.CurveFor_InvForPV_0355.3_from_03551369.3 npts=6 Xarray=[0.5        0.95        0.98        1.02        1.05         1.5] Yarray=[1  1  0  0 -1 -1]
New XYCurve.CurveFor_InvForPV_03552576.3_from_03551369.3 npts=6 Xarray=[0.5        0.95        0.98        1.02        1.05         1.5] Yarray=[1  1  0  0 -1 -1]
New XYCurve.CurveFor_InvForPV_0355.2_from_03551370.2 npts=6 Xarray=[0.5        0.95        0.98        1.02        1.05         1.5] Yarray=[1  1  0  0 -1 -1]
New XYCurve.CurveFor_InvForPV_03552576.2_from_03551370.2 npts=6 Xarray=[0.5        0.95        0.98        1.02        1.05         1.5] Yarray=[1  1  0  0 -1 -1]
New XYCurve.CurveFor_InvForPV_0355.3_from_03551370.3 npts=6 Xarray=[0.5        0.95        0.98        1.02        1.05         1.5] Yarray=[1  1  0  0 -1 -1]
New XYCurve.CurveFor_InvForPV_03552576.3_from_03551370.3 npts=6 Xarray=[0.5        0.95        0.98        1.02        1.05         1.5] Yarray=[1  1  0  0 -1 -1]
New XYCurve.CurveFor_InvForPV_0355.2_from_03551371.2 npts=6 Xarray=[0.5        0.95        0.98        1.02        1.05         1.5] Yarray=[1  1  0  0 -1 -1]
New XYCurve.CurveFor_InvForPV_03552576.2_from_03551371.2 npts=6 Xarray=[0.5        0.95        0.98        1.02        1.05         1.5] Yarray=[1  1  0  0 -1 -1]
New XYCurve.CurveFor_InvForPV_0355.3_from_03551371.3 npts=6 Xarray=[0.5        0.95        0.98        1.02        1.05         1.5] Yarray=[1  1  0  0 -1 -1]
New XYCurve.CurveFor_InvForPV_03552576.3_from_03551371.3 npts=6 Xarray=[0.5        0.95        0.98        1.02        1.05         1.5] Yarray=[1  1  0  0 -1 -1]
New XYCurve.CurveFor_InvForPV_0355.2_from_03551372.2 npts=6 Xarray=[0.5        0.95        0.98        1.02        1.05         1.5] Yarray=[1  1  0  0 -1 -1]
New XYCurve.CurveFor_InvForPV_03552576.2_from_03551372.2 npts=6 Xarray=[0.5        0.95        0.98        1.02        1.05         1.5] Yarray=[1  1  0  0 -1 -1]
New XYCurve.CurveFor_InvForPV_0355.3_from_03551372.3 npts=6 Xarray=[0.5        0.95        0.98        1.02        1.05         1.5] Yarray=[1  1  0  0 -1 -1]
New XYCurve.CurveFor_InvForPV_03552576.3_from_03551372.3 npts=6 Xarray=[0.5        0.95        0.98        1.02        1.05         1.5] Yarray=[1  1  0  0 -1 -1]
New XYCurve.CurveFor_InvForPV_0355.2_from_03551373.2 npts=6 Xarray=[0.5        0.95        0.98        1.02        1.05         1.5] Yarray=[1  1  0  0 -1 -1]
New XYCurve.CurveFor_InvForPV_03552576.2_from_03551373.2 npts=6 Xarray=[0.5        0.95        0.98        1.02        1.05         1.5] Yarray=[1  1  0  0 -1 -1]
New XYCurve.CurveFor_InvForPV_0355.3_from_03551373.3 npts=6 Xarray=[0.5        0.95        0.98        1.02        1.05         1.5] Yarray=[1  1  0  0 -1 -1]
New XYCurve.CurveFor_InvForPV_03552576.3_from_03551373.3 npts=6 Xarray=[0.5        0.95        0.98        1.02        1.05         1.5] Yarray=[1  1  0  0 -1 -1]
New XYCurve.CurveFor_InvForPV_0355.2_from_03551388.2 npts=6 Xarray=[0.5        0.95        0.98        1.02        1.05         1.5] Yarray=[1  1  0  0 -1 -1]
New XYCurve.CurveFor_InvForPV_03552576.2_from_03551388.2 npts=6 Xarray=[0.5        0.95        0.98        1.02        1.05         1.5] Yarray=[1  1  0  0 -1 -1]
New XYCurve.CurveFor_InvForPV_0355.3_from_03551388.3 npts=6 Xarray=[0.5        0.95        0.98        1.02        1.05         1.5] Yarray=[1  1  0  0 -1 -1]
New XYCurve.CurveFor_InvForPV_03552576.3_from_03551388.3 npts=6 Xarray=[0.5        0.95        0.98        1.02        1.05         1.5] Yarray=[1  1  0  0 -1 -1]
New XYCurve.CurveFor_InvForPV_0355.2_from_03551374.2 npts=6 Xarray=[0.5        0.95        0.98        1.02        1.05         1.5] Yarray=[1  1  0  0 -1 -1]
New XYCurve.CurveFor_InvForPV_03552576.2_from_03551374.2 npts=6 Xarray=[0.5        0.95        0.98        1.02        1.05         1.5] Yarray=[1  1  0  0 -1 -1]
New XYCurve.CurveFor_InvForPV_0355.3_from_03551374.3 npts=6 Xarray=[0.5        0.95        0.98        1.02        1.05         1.5] Yarray=[1  1  0  0 -1 -1]
New XYCurve.CurveFor_InvForPV_03552576.3_from_03551374.3 npts=6 Xarray=[0.5        0.95        0.98        1.02        1.05         1.5] Yarray=[1  1  0  0 -1 -1]
New XYCurve.CurveFor_InvForPV_0355.2_from_03551378.2 npts=6 Xarray=[0.5        0.95        0.98        1.02        1.05         1.5] Yarray=[1  1  0  0 -1 -1]
New XYCurve.CurveFor_InvForPV_03552576.2_from_03551378.2 npts=6 Xarray=[0.5        0.95        0.98        1.02        1.05         1.5] Yarray=[1  1  0  0 -1 -1]
New XYCurve.CurveFor_InvForPV_0355.3_from_03551378.3 npts=6 Xarray=[0.5        0.95        0.98        1.02        1.05         1.5] Yarray=[1  1  0  0 -1 -1]
New XYCurve.CurveFor_InvForPV_03552576.3_from_03551378.3 npts=6 Xarray=[0.5        0.95        0.98        1.02        1.05         1.5] Yarray=[1  1  0  0 -1 -1]
New XYCurve.CurveFor_InvForPV_0355.2_from_03551379.2 npts=6 Xarray=[0.5        0.95        0.98        1.02        1.05         1.5] Yarray=[1  1  0  0 -1 -1]
New XYCurve.CurveFor_InvForPV_03552576.2_from_03551379.2 npts=6 Xarray=[0.5        0.95        0.98        1.02        1.05         1.5] Yarray=[1  1  0  0 -1 -1]
New XYCurve.CurveFor_InvForPV_0355.3_from_03551379.3 npts=6 Xarray=[0.5        0.95        0.98        1.02        1.05         1.5] Yarray=[1  1  0  0 -1 -1]
New XYCurve.CurveFor_InvForPV_03552576.3_from_03551379.3 npts=6 Xarray=[0.5        0.95        0.98        1.02        1.05         1.5] Yarray=[1  1  0  0 -1 -1]
New XYCurve.CurveFor_InvForPV_0355.2_from_03551380.2 npts=6 Xarray=[0.5        0.95        0.98        1.02        1.05         1.5] Yarray=[1  1  0  0 -1 -1]
New XYCurve.CurveFor_InvForPV_03552576.2_from_03551380.2 npts=6 Xarray=[0.5        0.95        0.98        1.02        1.05         1.5] Yarray=[1  1  0  0 -1 -1]
New XYCurve.CurveFor_InvForPV_0355.3_from_03551380.3 npts=6 Xarray=[0.5        0.95        0.98        1.02        1.05         1.5] Yarray=[1  1  0  0 -1 -1]
New XYCurve.CurveFor_InvForPV_03552576.3_from_03551380.3 npts=6 Xarray=[0.5        0.95        0.98        1.02        1.05         1.5] Yarray=[1  1  0  0 -1 -1]
New XYCurve.CurveFor_InvForPV_0355.2_from_03551381.2 npts=6 Xarray=[0.5        0.95        0.98        1.02        1.05         1.5] Yarray=[1  1  0  0 -1 -1]
New XYCurve.CurveFor_InvForPV_03552576.2_from_03551381.2 npts=6 Xarray=[0.5        0.95        0.98        1.02        1.05         1.5] Yarray=[1  1  0  0 -1 -1]
New XYCurve.CurveFor_InvForPV_0355.3_from_03551381.3 npts=6 Xarray=[0.5        0.95        0.98        1.02        1.05         1.5] Yarray=[1  1  0  0 -1 -1]
New XYCurve.CurveFor_InvForPV_03552576.3_from_03551381.3 npts=6 Xarray=[0.5        0.95        0.98        1.02        1.05         1.5] Yarray=[1  1  0  0 -1 -1]
New XYCurve.CurveFor_InvForPV_0355.2_from_03551385A.2 npts=6 Xarray=[0.5        0.95        0.98        1.02        1.05         1.5] Yarray=[1  1  0  0 -1 -1]
New XYCurve.CurveFor_InvForPV_03552576.2_from_03551385A.2 npts=6 Xarray=[0.5        0.95        0.98        1.02        1.05         1.5] Yarray=[1  1  0  0 -1 -1]
New XYCurve.CurveFor_InvForPV_0355.3_from_03551385A.3 npts=6 Xarray=[0.5        0.95        0.98        1.02        1.05         1.5] Yarray=[1  1  0  0 -1 -1]
New XYCurve.CurveFor_InvForPV_03552576.3_from_03551385A.3 npts=6 Xarray=[0.5        0.95        0.98        1.02        1.05         1.5] Yarray=[1  1  0  0 -1 -1]
New XYCurve.CurveFor_InvForPV_0355.2_from_03551382.2 npts=6 Xarray=[0.5        0.95        0.98        1.02        1.05         1.5] Yarray=[1  1  0  0 -1 -1]
New XYCurve.CurveFor_InvForPV_03552576.2_from_03551382.2 npts=6 Xarray=[0.5        0.95        0.98        1.02        1.05         1.5] Yarray=[1  1  0  0 -1 -1]
New XYCurve.CurveFor_InvForPV_0355.3_from_03551382.3 npts=6 Xarray=[0.5        0.95        0.98        1.02        1.05         1.5] Yarray=[1  1  0  0 -1 -1]
New XYCurve.CurveFor_InvForPV_03552576.3_from_03551382.3 npts=6 Xarray=[0.5        0.95        0.98        1.02        1.05         1.5] Yarray=[1  1  0  0 -1 -1]
New XYCurve.CurveFor_InvForPV_0355.2_from_03551383.2 npts=6 Xarray=[0.5        0.95        0.98        1.02        1.05         1.5] Yarray=[1  1  0  0 -1 -1]
New XYCurve.CurveFor_InvForPV_03552576.2_from_03551383.2 npts=6 Xarray=[0.5        0.95        0.98        1.02        1.05         1.5] Yarray=[1  1  0  0 -1 -1]
New XYCurve.CurveFor_InvForPV_0355.3_from_03551383.3 npts=6 Xarray=[0.5        0.95        0.98        1.02        1.05         1.5] Yarray=[1  1  0  0 -1 -1]
New XYCurve.CurveFor_InvForPV_03552576.3_from_03551383.3 npts=6 Xarray=[0.5        0.95        0.98        1.02        1.05         1.5] Yarray=[1  1  0  0 -1 -1]
New XYCurve.CurveFor_InvForPV_0355.2_from_03551383A.2 npts=6 Xarray=[0.5        0.95        0.98        1.02        1.05         1.5] Yarray=[1  1  0  0 -1 -1]
New XYCurve.CurveFor_InvForPV_03552576.2_from_03551383A.2 npts=6 Xarray=[0.5        0.95        0.98        1.02        1.05         1.5] Yarray=[1  1  0  0 -1 -1]
New XYCurve.CurveFor_InvForPV_0355.3_from_03551383A.3 npts=6 Xarray=[0.5        0.95        0.98        1.02        1.05         1.5] Yarray=[1  1  0  0 -1 -1]
New XYCurve.CurveFor_InvForPV_03552576.3_from_03551383A.3 npts=6 Xarray=[0.5        0.95        0.98        1.02        1.05         1.5] Yarray=[1  1  0  0 -1 -1]
New XYCurve.CurveFor_InvForPV_0355.1_from_035516.1 npts=6 Xarray=[0.5        0.95        0.98        1.02        1.05         1.5] Yarray=[1  1  0  0 -1 -1]
New XYCurve.CurveFor_InvForPV_03552576.1_from_035516.1 npts=6 Xarray=[0.5        0.95        0.98        1.02        1.05         1.5] Yarray=[1  1  0  0 -1 -1]
New XYCurve.CurveFor_InvForPV_0355.2_from_035516.2 npts=6 Xarray=[0.5        0.95        0.98        1.02        1.05         1.5] Yarray=[1  1  0  0 -1 -1]
New XYCurve.CurveFor_InvForPV_03552576.2_from_035516.2 npts=6 Xarray=[0.5        0.95        0.98        1.02        1.05         1.5] Yarray=[1  1  0  0 -1 -1]
New XYCurve.CurveFor_InvForPV_0355.3_from_035516.3 npts=6 Xarray=[0.5        0.95        0.98        1.02        1.05         1.5] Yarray=[1  1  0  0 -1 -1]
New XYCurve.CurveFor_InvForPV_03552576.3_from_035516.3 npts=6 Xarray=[0.5        0.95        0.98        1.02        1.05         1.5] Yarray=[1  1  0  0 -1 -1]
New XYCurve.CurveFor_InvForPV_0355.1_from_035517.1 npts=6 Xarray=[0.5        0.95        0.98        1.02        1.05         1.5] Yarray=[1  1  0  0 -1 -1]
New XYCurve.CurveFor_InvForPV_03552576.1_from_035517.1 npts=6 Xarray=[0.5        0.95        0.98        1.02        1.05         1.5] Yarray=[1  1  0  0 -1 -1]
New XYCurve.CurveFor_InvForPV_0355.2_from_035517.2 npts=6 Xarray=[0.5        0.95        0.98        1.02        1.05         1.5] Yarray=[1  1  0  0 -1 -1]
New XYCurve.CurveFor_InvForPV_03552576.2_from_035517.2 npts=6 Xarray=[0.5        0.95        0.98        1.02        1.05         1.5] Yarray=[1  1  0  0 -1 -1]
New XYCurve.CurveFor_InvForPV_0355.3_from_035517.3 npts=6 Xarray=[0.5        0.95        0.98        1.02        1.05         1.5] Yarray=[1  1  0  0 -1 -1]
New XYCurve.CurveFor_InvForPV_03552576.3_from_035517.3 npts=6 Xarray=[0.5        0.95        0.98        1.02        1.05         1.5] Yarray=[1  1  0  0 -1 -1]
New XYCurve.CurveFor_InvForPV_0355.1_from_035518.1 npts=6 Xarray=[0.5        0.95        0.98        1.02        1.05         1.5] Yarray=[1  1  0  0 -1 -1]
New XYCurve.CurveFor_InvForPV_03552576.1_from_035518.1 npts=6 Xarray=[0.5        0.95        0.98        1.02        1.05         1.5] Yarray=[1  1  0  0 -1 -1]
New XYCurve.CurveFor_InvForPV_0355.2_from_035518.2 npts=6 Xarray=[0.5        0.95        0.98        1.02        1.05         1.5] Yarray=[1  1  0  0 -1 -1]
New XYCurve.CurveFor_InvForPV_03552576.2_from_035518.2 npts=6 Xarray=[0.5        0.95        0.98        1.02        1.05         1.5] Yarray=[1  1  0  0 -1 -1]
New XYCurve.CurveFor_InvForPV_0355.3_from_035518.3 npts=6 Xarray=[0.5        0.95        0.98        1.02        1.05         1.5] Yarray=[1  1  0  0 -1 -1]
New XYCurve.CurveFor_InvForPV_03552576.3_from_035518.3 npts=6 Xarray=[0.5        0.95        0.98        1.02        1.05         1.5] Yarray=[1  1  0  0 -1 -1]
New XYCurve.CurveFor_InvForPV_0355.1_from_035517A.1 npts=6 Xarray=[0.5        0.95        0.98        1.02        1.05         1.5] Yarray=[1  1  0  0 -1 -1]
New XYCurve.CurveFor_InvForPV_03552576.1_from_035517A.1 npts=6 Xarray=[0.5        0.95        0.98        1.02        1.05         1.5] Yarray=[1  1  0  0 -1 -1]
New XYCurve.CurveFor_InvForPV_0355.3_from_035517A.3 npts=6 Xarray=[0.5        0.95        0.98        1.02        1.05         1.5] Yarray=[1  1  0  0 -1 -1]
New XYCurve.CurveFor_InvForPV_03552576.3_from_035517A.3 npts=6 Xarray=[0.5        0.95        0.98        1.02        1.05         1.5] Yarray=[1  1  0  0 -1 -1]
New XYCurve.CurveFor_InvForPV_0355.2_from_03551601.2 npts=6 Xarray=[0.5        0.95        0.98        1.02        1.05         1.5] Yarray=[1  1  0  0 -1 -1]
New XYCurve.CurveFor_InvForPV_03552576.2_from_03551601.2 npts=6 Xarray=[0.5        0.95        0.98        1.02        1.05         1.5] Yarray=[1  1  0  0 -1 -1]
New XYCurve.CurveFor_InvForPV_0355.3_from_03551601.3 npts=6 Xarray=[0.5        0.95        0.98        1.02        1.05         1.5] Yarray=[1  1  0  0 -1 -1]
New XYCurve.CurveFor_InvForPV_03552576.3_from_03551601.3 npts=6 Xarray=[0.5        0.95        0.98        1.02        1.05         1.5] Yarray=[1  1  0  0 -1 -1]
New XYCurve.CurveFor_InvForPV_0355.2_from_03551603.2 npts=6 Xarray=[0.5        0.95        0.98        1.02        1.05         1.5] Yarray=[1  1  0  0 -1 -1]
New XYCurve.CurveFor_InvForPV_03552576.2_from_03551603.2 npts=6 Xarray=[0.5        0.95        0.98        1.02        1.05         1.5] Yarray=[1  1  0  0 -1 -1]
New XYCurve.CurveFor_InvForPV_0355.3_from_03551603.3 npts=6 Xarray=[0.5        0.95        0.98        1.02        1.05         1.5] Yarray=[1  1  0  0 -1 -1]
New XYCurve.CurveFor_InvForPV_03552576.3_from_03551603.3 npts=6 Xarray=[0.5        0.95        0.98        1.02        1.05         1.5] Yarray=[1  1  0  0 -1 -1]
New XYCurve.CurveFor_InvForPV_0355.2_from_03551802.2 npts=6 Xarray=[0.5        0.95        0.98        1.02        1.05         1.5] Yarray=[1  1  0  0 -1 -1]
New XYCurve.CurveFor_InvForPV_03552576.2_from_03551802.2 npts=6 Xarray=[0.5        0.95        0.98        1.02        1.05         1.5] Yarray=[1  1  0  0 -1 -1]
New XYCurve.CurveFor_InvForPV_0355.3_from_03551802.3 npts=6 Xarray=[0.5        0.95        0.98        1.02        1.05         1.5] Yarray=[1  1  0  0 -1 -1]
New XYCurve.CurveFor_InvForPV_03552576.3_from_03551802.3 npts=6 Xarray=[0.5        0.95        0.98        1.02        1.05         1.5] Yarray=[1  1  0  0 -1 -1]
New XYCurve.CurveFor_InvForPV_0355.1_from_03551701.1 npts=6 Xarray=[0.5        0.95        0.98        1.02        1.05         1.5] Yarray=[1  1  0  0 -1 -1]
New XYCurve.CurveFor_InvForPV_03552576.1_from_03551701.1 npts=6 Xarray=[0.5        0.95        0.98        1.02        1.05         1.5] Yarray=[1  1  0  0 -1 -1]
New XYCurve.CurveFor_InvForPV_0355.3_from_03551701.3 npts=6 Xarray=[0.5        0.95        0.98        1.02        1.05         1.5] Yarray=[1  1  0  0 -1 -1]
New XYCurve.CurveFor_InvForPV_03552576.3_from_03551701.3 npts=6 Xarray=[0.5        0.95        0.98        1.02        1.05         1.5] Yarray=[1  1  0  0 -1 -1]
New XYCurve.CurveFor_InvForPV_0355.1_from_03551702.1 npts=6 Xarray=[0.5        0.95        0.98        1.02        1.05         1.5] Yarray=[1  1  0  0 -1 -1]
New XYCurve.CurveFor_InvForPV_03552576.1_from_03551702.1 npts=6 Xarray=[0.5        0.95        0.98        1.02        1.05         1.5] Yarray=[1  1  0  0 -1 -1]
New XYCurve.CurveFor_InvForPV_0355.3_from_03551702.3 npts=6 Xarray=[0.5        0.95        0.98        1.02        1.05         1.5] Yarray=[1  1  0  0 -1 -1]
New XYCurve.CurveFor_InvForPV_03552576.3_from_03551702.3 npts=6 Xarray=[0.5        0.95        0.98        1.02        1.05         1.5] Yarray=[1  1  0  0 -1 -1]
New XYCurve.CurveFor_InvForPV_0355.1_from_03551704.1 npts=6 Xarray=[0.5        0.95        0.98        1.02        1.05         1.5] Yarray=[1  1  0  0 -1 -1]
New XYCurve.CurveFor_InvForPV_03552576.1_from_03551704.1 npts=6 Xarray=[0.5        0.95        0.98        1.02        1.05         1.5] Yarray=[1  1  0  0 -1 -1]
New XYCurve.CurveFor_InvForPV_0355.3_from_03551704.3 npts=6 Xarray=[0.5        0.95        0.98        1.02        1.05         1.5] Yarray=[1  1  0  0 -1 -1]
New XYCurve.CurveFor_InvForPV_03552576.3_from_03551704.3 npts=6 Xarray=[0.5        0.95        0.98        1.02        1.05         1.5] Yarray=[1  1  0  0 -1 -1]
New XYCurve.CurveFor_InvForPV_0355.1_from_03551708.1 npts=6 Xarray=[0.5        0.95        0.98        1.02        1.05         1.5] Yarray=[1  1  0  0 -1 -1]
New XYCurve.CurveFor_InvForPV_03552576.1_from_03551708.1 npts=6 Xarray=[0.5        0.95        0.98        1.02        1.05         1.5] Yarray=[1  1  0  0 -1 -1]
New XYCurve.CurveFor_InvForPV_0355.3_from_03551708.3 npts=6 Xarray=[0.5        0.95        0.98        1.02        1.05         1.5] Yarray=[1  1  0  0 -1 -1]
New XYCurve.CurveFor_InvForPV_03552576.3_from_03551708.3 npts=6 Xarray=[0.5        0.95        0.98        1.02        1.05         1.5] Yarray=[1  1  0  0 -1 -1]
New XYCurve.CurveFor_InvForPV_0355.1_from_03551705.1 npts=6 Xarray=[0.5        0.95        0.98        1.02        1.05         1.5] Yarray=[1  1  0  0 -1 -1]
New XYCurve.CurveFor_InvForPV_03552576.1_from_03551705.1 npts=6 Xarray=[0.5        0.95        0.98        1.02        1.05         1.5] Yarray=[1  1  0  0 -1 -1]
New XYCurve.CurveFor_InvForPV_0355.3_from_03551705.3 npts=6 Xarray=[0.5        0.95        0.98        1.02        1.05         1.5] Yarray=[1  1  0  0 -1 -1]
New XYCurve.CurveFor_InvForPV_03552576.3_from_03551705.3 npts=6 Xarray=[0.5        0.95        0.98        1.02        1.05         1.5] Yarray=[1  1  0  0 -1 -1]
New XYCurve.CurveFor_InvForPV_0355.1_from_03551709.1 npts=6 Xarray=[0.5        0.95        0.98        1.02        1.05         1.5] Yarray=[1  1  0  0 -1 -1]
New XYCurve.CurveFor_InvForPV_03552576.1_from_03551709.1 npts=6 Xarray=[0.5        0.95        0.98        1.02        1.05         1.5] Yarray=[1  1  0  0 -1 -1]
New XYCurve.CurveFor_InvForPV_0355.3_from_03551709.3 npts=6 Xarray=[0.5        0.95        0.98        1.02        1.05         1.5] Yarray=[1  1  0  0 -1 -1]
New XYCurve.CurveFor_InvForPV_03552576.3_from_03551709.3 npts=6 Xarray=[0.5        0.95        0.98        1.02        1.05         1.5] Yarray=[1  1  0  0 -1 -1]
New XYCurve.CurveFor_InvForPV_0355.1_from_03551715.1 npts=6 Xarray=[0.5        0.95        0.98        1.02        1.05         1.5] Yarray=[1  1  0  0 -1 -1]
New XYCurve.CurveFor_InvForPV_03552576.1_from_03551715.1 npts=6 Xarray=[0.5        0.95        0.98        1.02        1.05         1.5] Yarray=[1  1  0  0 -1 -1]
New XYCurve.CurveFor_InvForPV_0355.3_from_03551715.3 npts=6 Xarray=[0.5        0.95        0.98        1.02        1.05         1.5] Yarray=[1  1  0  0 -1 -1]
New XYCurve.CurveFor_InvForPV_03552576.3_from_03551715.3 npts=6 Xarray=[0.5        0.95        0.98        1.02        1.05         1.5] Yarray=[1  1  0  0 -1 -1]
New XYCurve.CurveFor_InvForPV_0355.1_from_03551706.1 npts=6 Xarray=[0.5        0.95        0.98        1.02        1.05         1.5] Yarray=[1  1  0  0 -1 -1]
New XYCurve.CurveFor_InvForPV_03552576.1_from_03551706.1 npts=6 Xarray=[0.5        0.95        0.98        1.02        1.05         1.5] Yarray=[1  1  0  0 -1 -1]
New XYCurve.CurveFor_InvForPV_0355.3_from_03551706.3 npts=6 Xarray=[0.5        0.95        0.98        1.02        1.05         1.5] Yarray=[1  1  0  0 -1 -1]
New XYCurve.CurveFor_InvForPV_03552576.3_from_03551706.3 npts=6 Xarray=[0.5        0.95        0.98        1.02        1.05         1.5] Yarray=[1  1  0  0 -1 -1]
New XYCurve.CurveFor_InvForPV_0355.1_from_03551707.1 npts=6 Xarray=[0.5        0.95        0.98        1.02        1.05         1.5] Yarray=[1  1  0  0 -1 -1]
New XYCurve.CurveFor_InvForPV_03552576.1_from_03551707.1 npts=6 Xarray=[0.5        0.95        0.98        1.02        1.05         1.5] Yarray=[1  1  0  0 -1 -1]
New XYCurve.CurveFor_InvForPV_0355.3_from_03551707.3 npts=6 Xarray=[0.5        0.95        0.98        1.02        1.05         1.5] Yarray=[1  1  0  0 -1 -1]
New XYCurve.CurveFor_InvForPV_03552576.3_from_03551707.3 npts=6 Xarray=[0.5        0.95        0.98        1.02        1.05         1.5] Yarray=[1  1  0  0 -1 -1]
New XYCurve.CurveFor_InvForPV_0355.1_from_03551709A.1 npts=6 Xarray=[0.5        0.95        0.98        1.02        1.05         1.5] Yarray=[1  1  0  0 -1 -1]
New XYCurve.CurveFor_InvForPV_03552576.1_from_03551709A.1 npts=6 Xarray=[0.5        0.95        0.98        1.02        1.05         1.5] Yarray=[1  1  0  0 -1 -1]
New XYCurve.CurveFor_InvForPV_0355.3_from_03551709A.3 npts=6 Xarray=[0.5        0.95        0.98        1.02        1.05         1.5] Yarray=[1  1  0  0 -1 -1]
New XYCurve.CurveFor_InvForPV_03552576.3_from_03551709A.3 npts=6 Xarray=[0.5        0.95        0.98        1.02        1.05         1.5] Yarray=[1  1  0  0 -1 -1]
New XYCurve.CurveFor_InvForPV_0355.1_from_03551712.1 npts=6 Xarray=[0.5        0.95        0.98        1.02        1.05         1.5] Yarray=[1  1  0  0 -1 -1]
New XYCurve.CurveFor_InvForPV_03552576.1_from_03551712.1 npts=6 Xarray=[0.5        0.95        0.98        1.02        1.05         1.5] Yarray=[1  1  0  0 -1 -1]
New XYCurve.CurveFor_InvForPV_0355.3_from_03551712.3 npts=6 Xarray=[0.5        0.95        0.98        1.02        1.05         1.5] Yarray=[1  1  0  0 -1 -1]
New XYCurve.CurveFor_InvForPV_03552576.3_from_03551712.3 npts=6 Xarray=[0.5        0.95        0.98        1.02        1.05         1.5] Yarray=[1  1  0  0 -1 -1]
New XYCurve.CurveFor_InvForPV_0355.1_from_035520.1 npts=6 Xarray=[0.5        0.95        0.98        1.02        1.05         1.5] Yarray=[1  1  0  0 -1 -1]
New XYCurve.CurveFor_InvForPV_03552576.1_from_035520.1 npts=6 Xarray=[0.5        0.95        0.98        1.02        1.05         1.5] Yarray=[1  1  0  0 -1 -1]
New XYCurve.CurveFor_InvForPV_0355.2_from_035520.2 npts=6 Xarray=[0.5        0.95        0.98        1.02        1.05         1.5] Yarray=[1  1  0  0 -1 -1]
New XYCurve.CurveFor_InvForPV_03552576.2_from_035520.2 npts=6 Xarray=[0.5        0.95        0.98        1.02        1.05         1.5] Yarray=[1  1  0  0 -1 -1]
New XYCurve.CurveFor_InvForPV_0355.3_from_035520.3 npts=6 Xarray=[0.5        0.95        0.98        1.02        1.05         1.5] Yarray=[1  1  0  0 -1 -1]
New XYCurve.CurveFor_InvForPV_03552576.3_from_035520.3 npts=6 Xarray=[0.5        0.95        0.98        1.02        1.05         1.5] Yarray=[1  1  0  0 -1 -1]
New XYCurve.CurveFor_InvForPV_0355.1_from_035521.1 npts=6 Xarray=[0.5        0.95        0.98        1.02        1.05         1.5] Yarray=[1  1  0  0 -1 -1]
New XYCurve.CurveFor_InvForPV_03552576.1_from_035521.1 npts=6 Xarray=[0.5        0.95        0.98        1.02        1.05         1.5] Yarray=[1  1  0  0 -1 -1]
New XYCurve.CurveFor_InvForPV_0355.2_from_035521.2 npts=6 Xarray=[0.5        0.95        0.98        1.02        1.05         1.5] Yarray=[1  1  0  0 -1 -1]
New XYCurve.CurveFor_InvForPV_03552576.2_from_035521.2 npts=6 Xarray=[0.5        0.95        0.98        1.02        1.05         1.5] Yarray=[1  1  0  0 -1 -1]
New XYCurve.CurveFor_InvForPV_0355.3_from_035521.3 npts=6 Xarray=[0.5        0.95        0.98        1.02        1.05         1.5] Yarray=[1  1  0  0 -1 -1]
New XYCurve.CurveFor_InvForPV_03552576.3_from_035521.3 npts=6 Xarray=[0.5        0.95        0.98        1.02        1.05         1.5] Yarray=[1  1  0  0 -1 -1]
New XYCurve.CurveFor_InvForPV_0355.1_from_035520A.1 npts=6 Xarray=[0.5        0.95        0.98        1.02        1.05         1.5] Yarray=[1  1  0  0 -1 -1]
New XYCurve.CurveFor_InvForPV_03552576.1_from_035520A.1 npts=6 Xarray=[0.5        0.95        0.98        1.02        1.05         1.5] Yarray=[1  1  0  0 -1 -1]
New XYCurve.CurveFor_InvForPV_0355.3_from_035520A.3 npts=6 Xarray=[0.5        0.95        0.98        1.02        1.05         1.5] Yarray=[1  1  0  0 -1 -1]
New XYCurve.CurveFor_InvForPV_03552576.3_from_035520A.3 npts=6 Xarray=[0.5        0.95        0.98        1.02        1.05         1.5] Yarray=[1  1  0  0 -1 -1]
New XYCurve.CurveFor_InvForPV_0355.1_from_035522.1 npts=6 Xarray=[0.5        0.95        0.98        1.02        1.05         1.5] Yarray=[1  1  0  0 -1 -1]
New XYCurve.CurveFor_InvForPV_03552576.1_from_035522.1 npts=6 Xarray=[0.5        0.95        0.98        1.02        1.05         1.5] Yarray=[1  1  0  0 -1 -1]
New XYCurve.CurveFor_InvForPV_0355.2_from_035522.2 npts=6 Xarray=[0.5        0.95        0.98        1.02        1.05         1.5] Yarray=[1  1  0  0 -1 -1]
New XYCurve.CurveFor_InvForPV_03552576.2_from_035522.2 npts=6 Xarray=[0.5        0.95        0.98        1.02        1.05         1.5] Yarray=[1  1  0  0 -1 -1]
New XYCurve.CurveFor_InvForPV_0355.3_from_035522.3 npts=6 Xarray=[0.5        0.95        0.98        1.02        1.05         1.5] Yarray=[1  1  0  0 -1 -1]
New XYCurve.CurveFor_InvForPV_03552576.3_from_035522.3 npts=6 Xarray=[0.5        0.95        0.98        1.02        1.05         1.5] Yarray=[1  1  0  0 -1 -1]
New XYCurve.CurveFor_InvForPV_0355.1_from_035523.1 npts=6 Xarray=[0.5        0.95        0.98        1.02        1.05         1.5] Yarray=[1  1  0  0 -1 -1]
New XYCurve.CurveFor_InvForPV_03552576.1_from_035523.1 npts=6 Xarray=[0.5        0.95        0.98        1.02        1.05         1.5] Yarray=[1  1  0  0 -1 -1]
New XYCurve.CurveFor_InvForPV_0355.3_from_035523.3 npts=6 Xarray=[0.5        0.95        0.98        1.02        1.05         1.5] Yarray=[1  1  0  0 -1 -1]
New XYCurve.CurveFor_InvForPV_03552576.3_from_035523.3 npts=6 Xarray=[0.5        0.95        0.98        1.02        1.05         1.5] Yarray=[1  1  0  0 -1 -1]
New XYCurve.CurveFor_InvForPV_0355.1_from_035524.1 npts=6 Xarray=[0.5        0.95        0.98        1.02        1.05         1.5] Yarray=[1  1  0  0 -1 -1]
New XYCurve.CurveFor_InvForPV_03552576.1_from_035524.1 npts=6 Xarray=[0.5        0.95        0.98        1.02        1.05         1.5] Yarray=[1  1  0  0 -1 -1]
New XYCurve.CurveFor_InvForPV_0355.2_from_035524.2 npts=6 Xarray=[0.5        0.95        0.98        1.02        1.05         1.5] Yarray=[1  1  0  0 -1 -1]
New XYCurve.CurveFor_InvForPV_03552576.2_from_035524.2 npts=6 Xarray=[0.5        0.95        0.98        1.02        1.05         1.5] Yarray=[1  1  0  0 -1 -1]
New XYCurve.CurveFor_InvForPV_0355.3_from_035524.3 npts=6 Xarray=[0.5        0.95        0.98        1.02        1.05         1.5] Yarray=[1  1  0  0 -1 -1]
New XYCurve.CurveFor_InvForPV_03552576.3_from_035524.3 npts=6 Xarray=[0.5        0.95        0.98        1.02        1.05         1.5] Yarray=[1  1  0  0 -1 -1]
New XYCurve.CurveFor_InvForPV_0355.1_from_035524A.1 npts=6 Xarray=[0.5        0.95        0.98        1.02        1.05         1.5] Yarray=[1  1  0  0 -1 -1]
New XYCurve.CurveFor_InvForPV_03552576.1_from_035524A.1 npts=6 Xarray=[0.5        0.95        0.98        1.02        1.05         1.5] Yarray=[1  1  0  0 -1 -1]
New XYCurve.CurveFor_InvForPV_0355.2_from_035524A.2 npts=6 Xarray=[0.5        0.95        0.98        1.02        1.05         1.5] Yarray=[1  1  0  0 -1 -1]
New XYCurve.CurveFor_InvForPV_03552576.2_from_035524A.2 npts=6 Xarray=[0.5        0.95        0.98        1.02        1.05         1.5] Yarray=[1  1  0  0 -1 -1]
New XYCurve.CurveFor_InvForPV_0355.3_from_035524A.3 npts=6 Xarray=[0.5        0.95        0.98        1.02        1.05         1.5] Yarray=[1  1  0  0 -1 -1]
New XYCurve.CurveFor_InvForPV_03552576.3_from_035524A.3 npts=6 Xarray=[0.5        0.95        0.98        1.02        1.05         1.5] Yarray=[1  1  0  0 -1 -1]
New XYCurve.CurveFor_InvForPV_0355.1_from_03552501.1 npts=6 Xarray=[0.5        0.95        0.98        1.02        1.05         1.5] Yarray=[1  1  0  0 -1 -1]
New XYCurve.CurveFor_InvForPV_03552576.1_from_03552501.1 npts=6 Xarray=[0.5        0.95        0.98        1.02        1.05         1.5] Yarray=[1  1  0  0 -1 -1]
New XYCurve.CurveFor_InvForPV_0355.3_from_03552501.3 npts=6 Xarray=[0.5        0.95        0.98        1.02        1.05         1.5] Yarray=[1  1  0  0 -1 -1]
New XYCurve.CurveFor_InvForPV_03552576.3_from_03552501.3 npts=6 Xarray=[0.5        0.95        0.98        1.02        1.05         1.5] Yarray=[1  1  0  0 -1 -1]
New XYCurve.CurveFor_InvForPV_0355.1_from_035526.1 npts=6 Xarray=[0.5        0.95        0.98        1.02        1.05         1.5] Yarray=[1  1  0  0 -1 -1]
New XYCurve.CurveFor_InvForPV_03552576.1_from_035526.1 npts=6 Xarray=[0.5        0.95        0.98        1.02        1.05         1.5] Yarray=[1  1  0  0 -1 -1]
New XYCurve.CurveFor_InvForPV_0355.2_from_035526.2 npts=6 Xarray=[0.5        0.95        0.98        1.02        1.05         1.5] Yarray=[1  1  0  0 -1 -1]
New XYCurve.CurveFor_InvForPV_03552576.2_from_035526.2 npts=6 Xarray=[0.5        0.95        0.98        1.02        1.05         1.5] Yarray=[1  1  0  0 -1 -1]
New XYCurve.CurveFor_InvForPV_0355.3_from_035526.3 npts=6 Xarray=[0.5        0.95        0.98        1.02        1.05         1.5] Yarray=[1  1  0  0 -1 -1]
New XYCurve.CurveFor_InvForPV_03552576.3_from_035526.3 npts=6 Xarray=[0.5        0.95        0.98        1.02        1.05         1.5] Yarray=[1  1  0  0 -1 -1]
New XYCurve.CurveFor_InvForPV_0355.1_from_03552601.1 npts=6 Xarray=[0.5        0.95        0.98        1.02        1.05         1.5] Yarray=[1  1  0  0 -1 -1]
New XYCurve.CurveFor_InvForPV_03552576.1_from_03552601.1 npts=6 Xarray=[0.5        0.95        0.98        1.02        1.05         1.5] Yarray=[1  1  0  0 -1 -1]
New XYCurve.CurveFor_InvForPV_0355.2_from_03552601.2 npts=6 Xarray=[0.5        0.95        0.98        1.02        1.05         1.5] Yarray=[1  1  0  0 -1 -1]
New XYCurve.CurveFor_InvForPV_03552576.2_from_03552601.2 npts=6 Xarray=[0.5        0.95        0.98        1.02        1.05         1.5] Yarray=[1  1  0  0 -1 -1]
New XYCurve.CurveFor_InvForPV_0355.3_from_03552601.3 npts=6 Xarray=[0.5        0.95        0.98        1.02        1.05         1.5] Yarray=[1  1  0  0 -1 -1]
New XYCurve.CurveFor_InvForPV_03552576.3_from_03552601.3 npts=6 Xarray=[0.5        0.95        0.98        1.02        1.05         1.5] Yarray=[1  1  0  0 -1 -1]
New XYCurve.CurveFor_InvForPV_0355.1_from_035527.1 npts=6 Xarray=[0.5        0.95        0.98        1.02        1.05         1.5] Yarray=[1  1  0  0 -1 -1]
New XYCurve.CurveFor_InvForPV_03552576.1_from_035527.1 npts=6 Xarray=[0.5        0.95        0.98        1.02        1.05         1.5] Yarray=[1  1  0  0 -1 -1]
New XYCurve.CurveFor_InvForPV_0355.2_from_035527.2 npts=6 Xarray=[0.5        0.95        0.98        1.02        1.05         1.5] Yarray=[1  1  0  0 -1 -1]
New XYCurve.CurveFor_InvForPV_03552576.2_from_035527.2 npts=6 Xarray=[0.5        0.95        0.98        1.02        1.05         1.5] Yarray=[1  1  0  0 -1 -1]
New XYCurve.CurveFor_InvForPV_0355.3_from_035527.3 npts=6 Xarray=[0.5        0.95        0.98        1.02        1.05         1.5] Yarray=[1  1  0  0 -1 -1]
New XYCurve.CurveFor_InvForPV_03552576.3_from_035527.3 npts=6 Xarray=[0.5        0.95        0.98        1.02        1.05         1.5] Yarray=[1  1  0  0 -1 -1]
New XYCurve.CurveFor_InvForPV_0355.1_from_03552502A.1 npts=6 Xarray=[0.5        0.95        0.98        1.02        1.05         1.5] Yarray=[1  1  0  0 -1 -1]
New XYCurve.CurveFor_InvForPV_03552576.1_from_03552502A.1 npts=6 Xarray=[0.5        0.95        0.98        1.02        1.05         1.5] Yarray=[1  1  0  0 -1 -1]
New XYCurve.CurveFor_InvForPV_0355.2_from_03552502A.2 npts=6 Xarray=[0.5        0.95        0.98        1.02        1.05         1.5] Yarray=[1  1  0  0 -1 -1]
New XYCurve.CurveFor_InvForPV_03552576.2_from_03552502A.2 npts=6 Xarray=[0.5        0.95        0.98        1.02        1.05         1.5] Yarray=[1  1  0  0 -1 -1]
New XYCurve.CurveFor_InvForPV_0355.3_from_03552502A.3 npts=6 Xarray=[0.5        0.95        0.98        1.02        1.05         1.5] Yarray=[1  1  0  0 -1 -1]
New XYCurve.CurveFor_InvForPV_03552576.3_from_03552502A.3 npts=6 Xarray=[0.5        0.95        0.98        1.02        1.05         1.5] Yarray=[1  1  0  0 -1 -1]
New XYCurve.CurveFor_InvForPV_0355.1_from_03552510.1 npts=6 Xarray=[0.5        0.95        0.98        1.02        1.05         1.5] Yarray=[1  1  0  0 -1 -1]
New XYCurve.CurveFor_InvForPV_03552576.1_from_03552510.1 npts=6 Xarray=[0.5        0.95        0.98        1.02        1.05         1.5] Yarray=[1  1  0  0 -1 -1]
New XYCurve.CurveFor_InvForPV_0355.2_from_03552510.2 npts=6 Xarray=[0.5        0.95        0.98        1.02        1.05         1.5] Yarray=[1  1  0  0 -1 -1]
New XYCurve.CurveFor_InvForPV_03552576.2_from_03552510.2 npts=6 Xarray=[0.5        0.95        0.98        1.02        1.05         1.5] Yarray=[1  1  0  0 -1 -1]
New XYCurve.CurveFor_InvForPV_0355.3_from_03552510.3 npts=6 Xarray=[0.5        0.95        0.98        1.02        1.05         1.5] Yarray=[1  1  0  0 -1 -1]
New XYCurve.CurveFor_InvForPV_03552576.3_from_03552510.3 npts=6 Xarray=[0.5        0.95        0.98        1.02        1.05         1.5] Yarray=[1  1  0  0 -1 -1]
New XYCurve.CurveFor_InvForPV_0355.1_from_03552503A.1 npts=6 Xarray=[0.5        0.95        0.98        1.02        1.05         1.5] Yarray=[1  1  0  0 -1 -1]
New XYCurve.CurveFor_InvForPV_03552576.1_from_03552503A.1 npts=6 Xarray=[0.5        0.95        0.98        1.02        1.05         1.5] Yarray=[1  1  0  0 -1 -1]
New XYCurve.CurveFor_InvForPV_0355.2_from_03552503A.2 npts=6 Xarray=[0.5        0.95        0.98        1.02        1.05         1.5] Yarray=[1  1  0  0 -1 -1]
New XYCurve.CurveFor_InvForPV_03552576.2_from_03552503A.2 npts=6 Xarray=[0.5        0.95        0.98        1.02        1.05         1.5] Yarray=[1  1  0  0 -1 -1]
New XYCurve.CurveFor_InvForPV_0355.3_from_03552503A.3 npts=6 Xarray=[0.5        0.95        0.98        1.02        1.05         1.5] Yarray=[1  1  0  0 -1 -1]
New XYCurve.CurveFor_InvForPV_03552576.3_from_03552503A.3 npts=6 Xarray=[0.5        0.95        0.98        1.02        1.05         1.5] Yarray=[1  1  0  0 -1 -1]
New XYCurve.CurveFor_InvForPV_0355.1_from_03552513.1 npts=6 Xarray=[0.5        0.95        0.98        1.02        1.05         1.5] Yarray=[1  1  0  0 -1 -1]
New XYCurve.CurveFor_InvForPV_03552576.1_from_03552513.1 npts=6 Xarray=[0.5        0.95        0.98        1.02        1.05         1.5] Yarray=[1  1  0  0 -1 -1]
New XYCurve.CurveFor_InvForPV_0355.2_from_03552513.2 npts=6 Xarray=[0.5        0.95        0.98        1.02        1.05         1.5] Yarray=[1  1  0  0 -1 -1]
New XYCurve.CurveFor_InvForPV_03552576.2_from_03552513.2 npts=6 Xarray=[0.5        0.95        0.98        1.02        1.05         1.5] Yarray=[1  1  0  0 -1 -1]
New XYCurve.CurveFor_InvForPV_0355.3_from_03552513.3 npts=6 Xarray=[0.5        0.95        0.98        1.02        1.05         1.5] Yarray=[1  1  0  0 -1 -1]
New XYCurve.CurveFor_InvForPV_03552576.3_from_03552513.3 npts=6 Xarray=[0.5        0.95        0.98        1.02        1.05         1.5] Yarray=[1  1  0  0 -1 -1]
New XYCurve.CurveFor_InvForPV_0355.3_from_03552507.3 npts=6 Xarray=[0.5        0.95        0.98        1.02        1.05         1.5] Yarray=[1  1  0  0 -1 -1]
New XYCurve.CurveFor_InvForPV_03552576.3_from_03552507.3 npts=6 Xarray=[0.5        0.95        0.98        1.02        1.05         1.5] Yarray=[1  1  0  0 -1 -1]
New XYCurve.CurveFor_InvForPV_0355.1_from_03552514.1 npts=6 Xarray=[0.5        0.95        0.98        1.02        1.05         1.5] Yarray=[1  1  0  0 -1 -1]
New XYCurve.CurveFor_InvForPV_03552576.1_from_03552514.1 npts=6 Xarray=[0.5        0.95        0.98        1.02        1.05         1.5] Yarray=[1  1  0  0 -1 -1]
New XYCurve.CurveFor_InvForPV_0355.2_from_03552514.2 npts=6 Xarray=[0.5        0.95        0.98        1.02        1.05         1.5] Yarray=[1  1  0  0 -1 -1]
New XYCurve.CurveFor_InvForPV_03552576.2_from_03552514.2 npts=6 Xarray=[0.5        0.95        0.98        1.02        1.05         1.5] Yarray=[1  1  0  0 -1 -1]
New XYCurve.CurveFor_InvForPV_0355.3_from_03552514.3 npts=6 Xarray=[0.5        0.95        0.98        1.02        1.05         1.5] Yarray=[1  1  0  0 -1 -1]
New XYCurve.CurveFor_InvForPV_03552576.3_from_03552514.3 npts=6 Xarray=[0.5        0.95        0.98        1.02        1.05         1.5] Yarray=[1  1  0  0 -1 -1]
New XYCurve.CurveFor_InvForPV_0355.1_from_03552511A.1 npts=6 Xarray=[0.5        0.95        0.98        1.02        1.05         1.5] Yarray=[1  1  0  0 -1 -1]
New XYCurve.CurveFor_InvForPV_03552576.1_from_03552511A.1 npts=6 Xarray=[0.5        0.95        0.98        1.02        1.05         1.5] Yarray=[1  1  0  0 -1 -1]
New XYCurve.CurveFor_InvForPV_0355.2_from_03552511A.2 npts=6 Xarray=[0.5        0.95        0.98        1.02        1.05         1.5] Yarray=[1  1  0  0 -1 -1]
New XYCurve.CurveFor_InvForPV_03552576.2_from_03552511A.2 npts=6 Xarray=[0.5        0.95        0.98        1.02        1.05         1.5] Yarray=[1  1  0  0 -1 -1]
New XYCurve.CurveFor_InvForPV_0355.3_from_03552511A.3 npts=6 Xarray=[0.5        0.95        0.98        1.02        1.05         1.5] Yarray=[1  1  0  0 -1 -1]
New XYCurve.CurveFor_InvForPV_03552576.3_from_03552511A.3 npts=6 Xarray=[0.5        0.95        0.98        1.02        1.05         1.5] Yarray=[1  1  0  0 -1 -1]
New XYCurve.CurveFor_InvForPV_0355.1_from_03552545.1 npts=6 Xarray=[0.5        0.95        0.98        1.02        1.05         1.5] Yarray=[1  1  0  0 -1 -1]
New XYCurve.CurveFor_InvForPV_03552576.1_from_03552545.1 npts=6 Xarray=[0.5        0.95        0.98        1.02        1.05         1.5] Yarray=[1  1  0  0 -1 -1]
New XYCurve.CurveFor_InvForPV_0355.2_from_03552545.2 npts=6 Xarray=[0.5        0.95        0.98        1.02        1.05         1.5] Yarray=[1  1  0  0 -1 -1]
New XYCurve.CurveFor_InvForPV_03552576.2_from_03552545.2 npts=6 Xarray=[0.5        0.95        0.98        1.02        1.05         1.5] Yarray=[1  1  0  0 -1 -1]
New XYCurve.CurveFor_InvForPV_0355.3_from_03552545.3 npts=6 Xarray=[0.5        0.95        0.98        1.02        1.05         1.5] Yarray=[1  1  0  0 -1 -1]
New XYCurve.CurveFor_InvForPV_03552576.3_from_03552545.3 npts=6 Xarray=[0.5        0.95        0.98        1.02        1.05         1.5] Yarray=[1  1  0  0 -1 -1]
New XYCurve.CurveFor_InvForPV_0355.1_from_03552518.1 npts=6 Xarray=[0.5        0.95        0.98        1.02        1.05         1.5] Yarray=[1  1  0  0 -1 -1]
New XYCurve.CurveFor_InvForPV_03552576.1_from_03552518.1 npts=6 Xarray=[0.5        0.95        0.98        1.02        1.05         1.5] Yarray=[1  1  0  0 -1 -1]
New XYCurve.CurveFor_InvForPV_0355.2_from_03552518.2 npts=6 Xarray=[0.5        0.95        0.98        1.02        1.05         1.5] Yarray=[1  1  0  0 -1 -1]
New XYCurve.CurveFor_InvForPV_03552576.2_from_03552518.2 npts=6 Xarray=[0.5        0.95        0.98        1.02        1.05         1.5] Yarray=[1  1  0  0 -1 -1]
New XYCurve.CurveFor_InvForPV_0355.2_from_03552522.2 npts=6 Xarray=[0.5        0.95        0.98        1.02        1.05         1.5] Yarray=[1  1  0  0 -1 -1]
New XYCurve.CurveFor_InvForPV_03552576.2_from_03552522.2 npts=6 Xarray=[0.5        0.95        0.98        1.02        1.05         1.5] Yarray=[1  1  0  0 -1 -1]
New XYCurve.CurveFor_InvForPV_0355.2_from_03552537.2 npts=6 Xarray=[0.5        0.95        0.98        1.02        1.05         1.5] Yarray=[1  1  0  0 -1 -1]
New XYCurve.CurveFor_InvForPV_03552576.2_from_03552537.2 npts=6 Xarray=[0.5        0.95        0.98        1.02        1.05         1.5] Yarray=[1  1  0  0 -1 -1]
New XYCurve.CurveFor_InvForPV_0355.3_from_03552541.3 npts=6 Xarray=[0.5        0.95        0.98        1.02        1.05         1.5] Yarray=[1  1  0  0 -1 -1]
[...]
New Invcontrol.InvForPV_0355.1_from_0355908.1 PVSystemList=PV_0355.1_from_0355908.1 Mode=VOLTVAR vvc_curve1=CurveFor_InvForPV_0355.1_from_0355908.1 DeltaQ_factor=0.01
New Invcontrol.InvForPV_03552576.1_from_0355908.1 PVSystemList=PV_03552576.1_from_0355908.1 Mode=VOLTVAR vvc_curve1=CurveFor_InvForPV_03552576.1_from_0355908.1 DeltaQ_factor=0.01
New Invcontrol.InvForPV_0355.2_from_0355908.2 PVSystemList=PV_0355.2_from_0355908.2 Mode=VOLTVAR vvc_curve1=CurveFor_InvForPV_0355.2_from_0355908.2 DeltaQ_factor=0.01
New Invcontrol.InvForPV_03552576.2_from_0355908.2 PVSystemList=PV_03552576.2_from_0355908.2 Mode=VOLTVAR vvc_curve1=CurveFor_InvForPV_03552576.2_from_0355908.2 DeltaQ_factor=0.01
New Invcontrol.InvForPV_0355.1_from_0355920.1 PVSystemList=PV_0355.1_from_0355920.1 Mode=VOLTVAR vvc_curve1=CurveFor_InvForPV_0355.1_from_0355920.1 DeltaQ_factor=0.01
New Invcontrol.InvForPV_03552576.1_from_0355920.1 PVSystemList=PV_03552576.1_from_0355920.1 Mode=VOLTVAR vvc_curve1=CurveFor_InvForPV_03552576.1_from_0355920.1 DeltaQ_factor=0.01
New Invcontrol.InvForPV_0355.2_from_0355920.2 PVSystemList=PV_0355.2_from_0355920.2 Mode=VOLTVAR vvc_curve1=CurveFor_InvForPV_0355.2_from_0355920.2 DeltaQ_factor=0.01
New Invcontrol.InvForPV_03552576.2_from_0355920.2 PVSystemList=PV_03552576.2_from_0355920.2 Mode=VOLTVAR vvc_curve1=CurveFor_InvForPV_03552576.2_from_0355920.2 DeltaQ_factor=0.01
New Invcontrol.InvForPV_0355.1_from_0355908A.1 PVSystemList=PV_0355.1_from_0355908A.1 Mode=VOLTVAR vvc_curve1=CurveFor_InvForPV_0355.1_from_0355908A.1 DeltaQ_factor=0.01
New Invcontrol.InvForPV_03552576.1_from_0355908A.1 PVSystemList=PV_03552576.1_from_0355908A.1 Mode=VOLTVAR vvc_curve1=CurveFor_InvForPV_03552576.1_from_0355908A.1 DeltaQ_factor=0.01
New Invcontrol.InvForPV_0355.1_from_0355945.1 PVSystemList=PV_0355.1_from_0355945.1 Mode=VOLTVAR vvc_curve1=CurveFor_InvForPV_0355.1_from_0355945.1 DeltaQ_factor=0.01
New Invcontrol.InvForPV_03552576.1_from_0355945.1 PVSystemList=PV_03552576.1_from_0355945.1 Mode=VOLTVAR vvc_curve1=CurveFor_InvForPV_03552576.1_from_0355945.1 DeltaQ_factor=0.01
New Invcontrol.InvForPV_0355.2_from_0355945.2 PVSystemList=PV_0355.2_from_0355945.2 Mode=VOLTVAR vvc_curve1=CurveFor_InvForPV_0355.2_from_0355945.2 DeltaQ_factor=0.01
New Invcontrol.InvForPV_03552576.2_from_0355945.2 PVSystemList=PV_03552576.2_from_0355945.2 Mode=VOLTVAR vvc_curve1=CurveFor_InvForPV_03552576.2_from_0355945.2 DeltaQ_factor=0.01
New Invcontrol.InvForPV_0355.1_from_0355946.1 PVSystemList=PV_0355.1_from_0355946.1 Mode=VOLTVAR vvc_curve1=CurveFor_InvForPV_0355.1_from_0355946.1 DeltaQ_factor=0.01
New Invcontrol.InvForPV_03552576.1_from_0355946.1 PVSystemList=PV_03552576.1_from_0355946.1 Mode=VOLTVAR vvc_curve1=CurveFor_InvForPV_03552576.1_from_0355946.1 DeltaQ_factor=0.01
New Invcontrol.InvForPV_0355.2_from_0355946.2 PVSystemList=PV_0355.2_from_0355946.2 Mode=VOLTVAR vvc_curve1=CurveFor_InvForPV_0355.2_from_0355946.2 DeltaQ_factor=0.01
New Invcontrol.InvForPV_03552576.2_from_0355946.2 PVSystemList=PV_03552576.2_from_0355946.2 Mode=VOLTVAR vvc_curve1=CurveFor_InvForPV_03552576.2_from_0355946.2 DeltaQ_factor=0.01
New Invcontrol.InvForPV_0355.1_from_0355921.1 PVSystemList=PV_0355.1_from_0355921.1 Mode=VOLTVAR vvc_curve1=CurveFor_InvForPV_0355.1_from_0355921.1 DeltaQ_factor=0.01
New Invcontrol.InvForPV_03552576.1_from_0355921.1 PVSystemList=PV_03552576.1_from_0355921.1 Mode=VOLTVAR vvc_curve1=CurveFor_InvForPV_03552576.1_from_0355921.1 DeltaQ_factor=0.01
New Invcontrol.InvForPV_0355.2_from_0355921.2 PVSystemList=PV_0355.2_from_0355921.2 Mode=VOLTVAR vvc_curve1=CurveFor_InvForPV_0355.2_from_0355921.2 DeltaQ_factor=0.01
New Invcontrol.InvForPV_03552576.2_from_0355921.2 PVSystemList=PV_03552576.2_from_0355921.2 Mode=VOLTVAR vvc_curve1=CurveFor_InvForPV_03552576.2_from_0355921.2 DeltaQ_factor=0.01
New Invcontrol.InvForPV_0355.1_from_0355923.1 PVSystemList=PV_0355.1_from_0355923.1 Mode=VOLTVAR vvc_curve1=CurveFor_InvForPV_0355.1_from_0355923.1 DeltaQ_factor=0.01
New Invcontrol.InvForPV_03552576.1_from_0355923.1 PVSystemList=PV_03552576.1_from_0355923.1 Mode=VOLTVAR vvc_curve1=CurveFor_InvForPV_03552576.1_from_0355923.1 DeltaQ_factor=0.01
New Invcontrol.InvForPV_0355.2_from_0355923.2 PVSystemList=PV_0355.2_from_0355923.2 Mode=VOLTVAR vvc_curve1=CurveFor_InvForPV_0355.2_from_0355923.2 DeltaQ_factor=0.01
New Invcontrol.InvForPV_03552576.2_from_0355923.2 PVSystemList=PV_03552576.2_from_0355923.2 Mode=VOLTVAR vvc_curve1=CurveFor_InvForPV_03552576.2_from_0355923.2 DeltaQ_factor=0.01
New Invcontrol.InvForPV_0355.1_from_0355909.1 PVSystemList=PV_0355.1_from_0355909.1 Mode=VOLTVAR vvc_curve1=CurveFor_InvForPV_0355.1_from_0355909.1 DeltaQ_factor=0.01
New Invcontrol.InvForPV_03552576.1_from_0355909.1 PVSystemList=PV_03552576.1_from_0355909.1 Mode=VOLTVAR vvc_curve1=CurveFor_InvForPV_03552576.1_from_0355909.1 DeltaQ_factor=0.01
New Invcontrol.InvForPV_0355.1_from_0355912.1 PVSystemList=PV_0355.1_from_0355912.1 Mode=VOLTVAR vvc_curve1=CurveFor_InvForPV_0355.1_from_0355912.1 DeltaQ_factor=0.01
New Invcontrol.InvForPV_03552576.1_from_0355912.1 PVSystemList=PV_03552576.1_from_0355912.1 Mode=VOLTVAR vvc_curve1=CurveFor_InvForPV_03552576.1_from_0355912.1 DeltaQ_factor=0.01
New Invcontrol.InvForPV_0355.1_from_0355915.1 PVSystemList=PV_0355.1_from_0355915.1 Mode=VOLTVAR vvc_curve1=CurveFor_InvForPV_0355.1_from_0355915.1 DeltaQ_factor=0.01
New Invcontrol.InvForPV_03552576.1_from_0355915.1 PVSystemList=PV_03552576.1_from_0355915.1 Mode=VOLTVAR vvc_curve1=CurveFor_InvForPV_03552576.1_from_0355915.1 DeltaQ_factor=0.01
New Invcontrol.InvForPV_0355.1_from_0355916.1 PVSystemList=PV_0355.1_from_0355916.1 Mode=VOLTVAR vvc_curve1=CurveFor_InvForPV_0355.1_from_0355916.1 DeltaQ_factor=0.01
New Invcontrol.InvForPV_03552576.1_from_0355916.1 PVSystemList=PV_03552576.1_from_0355916.1 Mode=VOLTVAR vvc_curve1=CurveFor_InvForPV_03552576.1_from_0355916.1 DeltaQ_factor=0.01
New Invcontrol.InvForPV_0355.1_from_0355921A.1 PVSystemList=PV_0355.1_from_0355921A.1 Mode=VOLTVAR vvc_curve1=CurveFor_InvForPV_0355.1_from_0355921A.1 DeltaQ_factor=0.01
New Invcontrol.InvForPV_03552576.1_from_0355921A.1 PVSystemList=PV_03552576.1_from_0355921A.1 Mode=VOLTVAR vvc_curve1=CurveFor_InvForPV_03552576.1_from_0355921A.1 DeltaQ_factor=0.01
New Invcontrol.InvForPV_0355.2_from_0355921A.2 PVSystemList=PV_0355.2_from_0355921A.2 Mode=VOLTVAR vvc_curve1=CurveFor_InvForPV_0355.2_from_0355921A.2 DeltaQ_factor=0.01
New Invcontrol.InvForPV_03552576.2_from_0355921A.2 PVSystemList=PV_03552576.2_from_0355921A.2 Mode=VOLTVAR vvc_curve1=CurveFor_InvForPV_03552576.2_from_0355921A.2 DeltaQ_factor=0.01
New Invcontrol.InvForPV_0355.1_from_0355924.1 PVSystemList=PV_0355.1_from_0355924.1 Mode=VOLTVAR vvc_curve1=CurveFor_InvForPV_0355.1_from_0355924.1 DeltaQ_factor=0.01
New Invcontrol.InvForPV_03552576.1_from_0355924.1 PVSystemList=PV_03552576.1_from_0355924.1 Mode=VOLTVAR vvc_curve1=CurveFor_InvForPV_03552576.1_from_0355924.1 DeltaQ_factor=0.01
New Invcontrol.InvForPV_0355.2_from_0355924.2 PVSystemList=PV_0355.2_from_0355924.2 Mode=VOLTVAR vvc_curve1=CurveFor_InvForPV_0355.2_from_0355924.2 DeltaQ_factor=0.01
New Invcontrol.InvForPV_03552576.2_from_0355924.2 PVSystemList=PV_03552576.2_from_0355924.2 Mode=VOLTVAR vvc_curve1=CurveFor_InvForPV_03552576.2_from_0355924.2 DeltaQ_factor=0.01
New Invcontrol.InvForPV_0355.1_from_0355930.1 PVSystemList=PV_0355.1_from_0355930.1 Mode=VOLTVAR vvc_curve1=CurveFor_InvForPV_0355.1_from_0355930.1 DeltaQ_factor=0.01
New Invcontrol.InvForPV_03552576.1_from_0355930.1 PVSystemList=PV_03552576.1_from_0355930.1 Mode=VOLTVAR vvc_curve1=CurveFor_InvForPV_03552576.1_from_0355930.1 DeltaQ_factor=0.01
New Invcontrol.InvForPV_0355.2_from_0355930.2 PVSystemList=PV_0355.2_from_0355930.2 Mode=VOLTVAR vvc_curve1=CurveFor_InvForPV_0355.2_from_0355930.2 DeltaQ_factor=0.01
New Invcontrol.InvForPV_03552576.2_from_0355930.2 PVSystemList=PV_03552576.2_from_0355930.2 Mode=VOLTVAR vvc_curve1=CurveFor_InvForPV_03552576.2_from_0355930.2 DeltaQ_factor=0.01
New Invcontrol.InvForPV_0355.1_from_0355933.1 PVSystemList=PV_0355.1_from_0355933.1 Mode=VOLTVAR vvc_curve1=CurveFor_InvForPV_0355.1_from_0355933.1 DeltaQ_factor=0.01
New Invcontrol.InvForPV_03552576.1_from_0355933.1 PVSystemList=PV_03552576.1_from_0355933.1 Mode=VOLTVAR vvc_curve1=CurveFor_InvForPV_03552576.1_from_0355933.1 DeltaQ_factor=0.01
New Invcontrol.InvForPV_0355.2_from_0355933.2 PVSystemList=PV_0355.2_from_0355933.2 Mode=VOLTVAR vvc_curve1=CurveFor_InvForPV_0355.2_from_0355933.2 DeltaQ_factor=0.01
New Invcontrol.InvForPV_03552576.2_from_0355933.2 PVSystemList=PV_03552576.2_from_0355933.2 Mode=VOLTVAR vvc_curve1=CurveFor_InvForPV_03552576.2_from_0355933.2 DeltaQ_factor=0.01
New Invcontrol.InvForPV_0355.1_from_0355930A.1 PVSystemList=PV_0355.1_from_0355930A.1 Mode=VOLTVAR vvc_curve1=CurveFor_InvForPV_0355.1_from_0355930A.1 DeltaQ_factor=0.01
New Invcontrol.InvForPV_03552576.1_from_0355930A.1 PVSystemList=PV_03552576.1_from_0355930A.1 Mode=VOLTVAR vvc_curve1=CurveFor_InvForPV_03552576.1_from_0355930A.1 DeltaQ_factor=0.01
New Invcontrol.InvForPV_0355.2_from_0355930A.2 PVSystemList=PV_0355.2_from_0355930A.2 Mode=VOLTVAR vvc_curve1=CurveFor_InvForPV_0355.2_from_0355930A.2 DeltaQ_factor=0.01
New Invcontrol.InvForPV_03552576.2_from_0355930A.2 PVSystemList=PV_03552576.2_from_0355930A.2 Mode=VOLTVAR vvc_curve1=CurveFor_InvForPV_03552576.2_from_0355930A.2 DeltaQ_factor=0.01
New Invcontrol.InvForPV_0355.1_from_0355925.1 PVSystemList=PV_0355.1_from_0355925.1 Mode=VOLTVAR vvc_curve1=CurveFor_InvForPV_0355.1_from_0355925.1 DeltaQ_factor=0.01
New Invcontrol.InvForPV_03552576.1_from_0355925.1 PVSystemList=PV_03552576.1_from_0355925.1 Mode=VOLTVAR vvc_curve1=CurveFor_InvForPV_03552576.1_from_0355925.1 DeltaQ_factor=0.01
New Invcontrol.InvForPV_0355.2_from_0355925.2 PVSystemList=PV_0355.2_from_0355925.2 Mode=VOLTVAR vvc_curve1=CurveFor_InvForPV_0355.2_from_0355925.2 DeltaQ_factor=0.01
New Invcontrol.InvForPV_03552576.2_from_0355925.2 PVSystemList=PV_03552576.2_from_0355925.2 Mode=VOLTVAR vvc_curve1=CurveFor_InvForPV_03552576.2_from_0355925.2 DeltaQ_factor=0.01
New Invcontrol.InvForPV_0355.1_from_0355926.1 PVSystemList=PV_0355.1_from_0355926.1 Mode=VOLTVAR vvc_curve1=CurveFor_InvForPV_0355.1_from_0355926.1 DeltaQ_factor=0.01
New Invcontrol.InvForPV_03552576.1_from_0355926.1 PVSystemList=PV_03552576.1_from_0355926.1 Mode=VOLTVAR vvc_curve1=CurveFor_InvForPV_03552576.1_from_0355926.1 DeltaQ_factor=0.01
New Invcontrol.InvForPV_0355.2_from_0355926.2 PVSystemList=PV_0355.2_from_0355926.2 Mode=VOLTVAR vvc_curve1=CurveFor_InvForPV_0355.2_from_0355926.2 DeltaQ_factor=0.01
New Invcontrol.InvForPV_03552576.2_from_0355926.2 PVSystemList=PV_03552576.2_from_0355926.2 Mode=VOLTVAR vvc_curve1=CurveFor_InvForPV_03552576.2_from_0355926.2 DeltaQ_factor=0.01
New Invcontrol.InvForPV_0355.1_from_0355928.1 PVSystemList=PV_0355.1_from_0355928.1 Mode=VOLTVAR vvc_curve1=CurveFor_InvForPV_0355.1_from_0355928.1 DeltaQ_factor=0.01
New Invcontrol.InvForPV_03552576.1_from_0355928.1 PVSystemList=PV_03552576.1_from_0355928.1 Mode=VOLTVAR vvc_curve1=CurveFor_InvForPV_03552576.1_from_0355928.1 DeltaQ_factor=0.01
New Invcontrol.InvForPV_0355.2_from_0355928.2 PVSystemList=PV_0355.2_from_0355928.2 Mode=VOLTVAR vvc_curve1=CurveFor_InvForPV_0355.2_from_0355928.2 DeltaQ_factor=0.01
New Invcontrol.InvForPV_03552576.2_from_0355928.2 PVSystemList=PV_03552576.2_from_0355928.2 Mode=VOLTVAR vvc_curve1=CurveFor_InvForPV_03552576.2_from_0355928.2 DeltaQ_factor=0.01
New Invcontrol.InvForPV_0355.1_from_0355929.1 PVSystemList=PV_0355.1_from_0355929.1 Mode=VOLTVAR vvc_curve1=CurveFor_InvForPV_0355.1_from_0355929.1 DeltaQ_factor=0.01
New Invcontrol.InvForPV_03552576.1_from_0355929.1 PVSystemList=PV_03552576.1_from_0355929.1 Mode=VOLTVAR vvc_curve1=CurveFor_InvForPV_03552576.1_from_0355929.1 DeltaQ_factor=0.01
New Invcontrol.InvForPV_0355.2_from_0355929.2 PVSystemList=PV_0355.2_from_0355929.2 Mode=VOLTVAR vvc_curve1=CurveFor_InvForPV_0355.2_from_0355929.2 DeltaQ_factor=0.01
New Invcontrol.InvForPV_03552576.2_from_0355929.2 PVSystemList=PV_03552576.2_from_0355929.2 Mode=VOLTVAR vvc_curve1=CurveFor_InvForPV_03552576.2_from_0355929.2 DeltaQ_factor=0.01
New Invcontrol.InvForPV_0355.1_from_0355939.1 PVSystemList=PV_0355.1_from_0355939.1 Mode=VOLTVAR vvc_curve1=CurveFor_InvForPV_0355.1_from_0355939.1 DeltaQ_factor=0.01
New Invcontrol.InvForPV_03552576.1_from_0355939.1 PVSystemList=PV_03552576.1_from_0355939.1 Mode=VOLTVAR vvc_curve1=CurveFor_InvForPV_03552576.1_from_0355939.1 DeltaQ_factor=0.01
New Invcontrol.InvForPV_0355.2_from_0355939.2 PVSystemList=PV_0355.2_from_0355939.2 Mode=VOLTVAR vvc_curve1=CurveFor_InvForPV_0355.2_from_0355939.2 DeltaQ_factor=0.01
New Invcontrol.InvForPV_03552576.2_from_0355939.2 PVSystemList=PV_03552576.2_from_0355939.2 Mode=VOLTVAR vvc_curve1=CurveFor_InvForPV_03552576.2_from_0355939.2 DeltaQ_factor=0.01
New Invcontrol.InvForPV_0355.1_from_0355933A.1 PVSystemList=PV_0355.1_from_0355933A.1 Mode=VOLTVAR vvc_curve1=CurveFor_InvForPV_0355.1_from_0355933A.1 DeltaQ_factor=0.01
New Invcontrol.InvForPV_03552576.1_from_0355933A.1 PVSystemList=PV_03552576.1_from_0355933A.1 Mode=VOLTVAR vvc_curve1=CurveFor_InvForPV_03552576.1_from_0355933A.1 DeltaQ_factor=0.01
New Invcontrol.InvForPV_0355.2_from_0355933A.2 PVSystemList=PV_0355.2_from_0355933A.2 Mode=VOLTVAR vvc_curve1=CurveFor_InvForPV_0355.2_from_0355933A.2 DeltaQ_factor=0.01
New Invcontrol.InvForPV_03552576.2_from_0355933A.2 PVSystemList=PV_03552576.2_from_0355933A.2 Mode=VOLTVAR vvc_curve1=CurveFor_InvForPV_03552576.2_from_0355933A.2 DeltaQ_factor=0.01
New Invcontrol.InvForPV_0355.1_from_0355931.1 PVSystemList=PV_0355.1_from_0355931.1 Mode=VOLTVAR vvc_curve1=CurveFor_InvForPV_0355.1_from_0355931.1 DeltaQ_factor=0.01
New Invcontrol.InvForPV_03552576.1_from_0355931.1 PVSystemList=PV_03552576.1_from_0355931.1 Mode=VOLTVAR vvc_curve1=CurveFor_InvForPV_03552576.1_from_0355931.1 DeltaQ_factor=0.01
New Invcontrol.InvForPV_0355.2_from_0355931.2 PVSystemList=PV_0355.2_from_0355931.2 Mode=VOLTVAR vvc_curve1=CurveFor_InvForPV_0355.2_from_0355931.2 DeltaQ_factor=0.01
New Invcontrol.InvForPV_03552576.2_from_0355931.2 PVSystemList=PV_03552576.2_from_0355931.2 Mode=VOLTVAR vvc_curve1=CurveFor_InvForPV_03552576.2_from_0355931.2 DeltaQ_factor=0.01
New Invcontrol.InvForPV_0355.1_from_0355939A.1 PVSystemList=PV_0355.1_from_0355939A.1 Mode=VOLTVAR vvc_curve1=CurveFor_InvForPV_0355.1_from_0355939A.1 DeltaQ_factor=0.01
New Invcontrol.InvForPV_03552576.1_from_0355939A.1 PVSystemList=PV_03552576.1_from_0355939A.1 Mode=VOLTVAR vvc_curve1=CurveFor_InvForPV_03552576.1_from_0355939A.1 DeltaQ_factor=0.01
New Invcontrol.InvForPV_0355.2_from_0355939A.2 PVSystemList=PV_0355.2_from_0355939A.2 Mode=VOLTVAR vvc_curve1=CurveFor_InvForPV_0355.2_from_0355939A.2 DeltaQ_factor=0.01
New Invcontrol.InvForPV_03552576.2_from_0355939A.2 PVSystemList=PV_03552576.2_from_0355939A.2 Mode=VOLTVAR vvc_curve1=CurveFor_InvForPV_03552576.2_from_0355939A.2 DeltaQ_factor=0.01
New Invcontrol.InvForPV_0355.1_from_0355934.1 PVSystemList=PV_0355.1_from_0355934.1 Mode=VOLTVAR vvc_curve1=CurveFor_InvForPV_0355.1_from_0355934.1 DeltaQ_factor=0.01
New Invcontrol.InvForPV_03552576.1_from_0355934.1 PVSystemList=PV_03552576.1_from_0355934.1 Mode=VOLTVAR vvc_curve1=CurveFor_InvForPV_03552576.1_from_0355934.1 DeltaQ_factor=0.01
New Invcontrol.InvForPV_0355.2_from_0355934.2 PVSystemList=PV_0355.2_from_0355934.2 Mode=VOLTVAR vvc_curve1=CurveFor_InvForPV_0355.2_from_0355934.2 DeltaQ_factor=0.01
New Invcontrol.InvForPV_03552576.2_from_0355934.2 PVSystemList=PV_03552576.2_from_0355934.2 Mode=VOLTVAR vvc_curve1=CurveFor_InvForPV_03552576.2_from_0355934.2 DeltaQ_factor=0.01
New Invcontrol.InvForPV_0355.1_from_0355936.1 PVSystemList=PV_0355.1_from_0355936.1 Mode=VOLTVAR vvc_curve1=CurveFor_InvForPV_0355.1_from_0355936.1 DeltaQ_factor=0.01
New Invcontrol.InvForPV_03552576.1_from_0355936.1 PVSystemList=PV_03552576.1_from_0355936.1 Mode=VOLTVAR vvc_curve1=CurveFor_InvForPV_03552576.1_from_0355936.1 DeltaQ_factor=0.01
New Invcontrol.InvForPV_0355.2_from_0355936.2 PVSystemList=PV_0355.2_from_0355936.2 Mode=VOLTVAR vvc_curve1=CurveFor_InvForPV_0355.2_from_0355936.2 DeltaQ_factor=0.01
New Invcontrol.InvForPV_03552576.2_from_0355936.2 PVSystemList=PV_03552576.2_from_0355936.2 Mode=VOLTVAR vvc_curve1=CurveFor_InvForPV_03552576.2_from_0355936.2 DeltaQ_factor=0.01
New Invcontrol.InvForPV_0355.1_from_0355937.1 PVSystemList=PV_0355.1_from_0355937.1 Mode=VOLTVAR vvc_curve1=CurveFor_InvForPV_0355.1_from_0355937.1 DeltaQ_factor=0.01
New Invcontrol.InvForPV_03552576.1_from_0355937.1 PVSystemList=PV_03552576.1_from_0355937.1 Mode=VOLTVAR vvc_curve1=CurveFor_InvForPV_03552576.1_from_0355937.1 DeltaQ_factor=0.01
New Invcontrol.InvForPV_0355.2_from_0355937.2 PVSystemList=PV_0355.2_from_0355937.2 Mode=VOLTVAR vvc_curve1=CurveFor_InvForPV_0355.2_from_0355937.2 DeltaQ_factor=0.01
New Invcontrol.InvForPV_03552576.2_from_0355937.2 PVSystemList=PV_03552576.2_from_0355937.2 Mode=VOLTVAR vvc_curve1=CurveFor_InvForPV_03552576.2_from_0355937.2 DeltaQ_factor=0.01
New Invcontrol.InvForPV_0355.1_from_0355940.1 PVSystemList=PV_0355.1_from_0355940.1 Mode=VOLTVAR vvc_curve1=CurveFor_InvForPV_0355.1_from_0355940.1 DeltaQ_factor=0.01
New Invcontrol.InvForPV_03552576.1_from_0355940.1 PVSystemList=PV_03552576.1_from_0355940.1 Mode=VOLTVAR vvc_curve1=CurveFor_InvForPV_03552576.1_from_0355940.1 DeltaQ_factor=0.01
New Invcontrol.InvForPV_0355.2_from_0355940.2 PVSystemList=PV_0355.2_from_0355940.2 Mode=VOLTVAR vvc_curve1=CurveFor_InvForPV_0355.2_from_0355940.2 DeltaQ_factor=0.01
New Invcontrol.InvForPV_03552576.2_from_0355940.2 PVSystemList=PV_03552576.2_from_0355940.2 Mode=VOLTVAR vvc_curve1=CurveFor_InvForPV_03552576.2_from_0355940.2 DeltaQ_factor=0.01
New Invcontrol.InvForPV_0355.1_from_0355941.1 PVSystemList=PV_0355.1_from_0355941.1 Mode=VOLTVAR vvc_curve1=CurveFor_InvForPV_0355.1_from_0355941.1 DeltaQ_factor=0.01
New Invcontrol.InvForPV_03552576.1_from_0355941.1 PVSystemList=PV_03552576.1_from_0355941.1 Mode=VOLTVAR vvc_curve1=CurveFor_InvForPV_03552576.1_from_0355941.1 DeltaQ_factor=0.01
New Invcontrol.InvForPV_0355.2_from_0355941.2 PVSystemList=PV_0355.2_from_0355941.2 Mode=VOLTVAR vvc_curve1=CurveFor_InvForPV_0355.2_from_0355941.2 DeltaQ_factor=0.01
New Invcontrol.InvForPV_03552576.2_from_0355941.2 PVSystemList=PV_03552576.2_from_0355941.2 Mode=VOLTVAR vvc_curve1=CurveFor_InvForPV_03552576.2_from_0355941.2 DeltaQ_factor=0.01
New Invcontrol.InvForPV_0355.1_from_0355947.1 PVSystemList=PV_0355.1_from_0355947.1 Mode=VOLTVAR vvc_curve1=CurveFor_InvForPV_0355.1_from_0355947.1 DeltaQ_factor=0.01
New Invcontrol.InvForPV_03552576.1_from_0355947.1 PVSystemList=PV_03552576.1_from_0355947.1 Mode=VOLTVAR vvc_curve1=CurveFor_InvForPV_03552576.1_from_0355947.1 DeltaQ_factor=0.01
New Invcontrol.InvForPV_0355.2_from_0355947.2 PVSystemList=PV_0355.2_from_0355947.2 Mode=VOLTVAR vvc_curve1=CurveFor_InvForPV_0355.2_from_0355947.2 DeltaQ_factor=0.01
New Invcontrol.InvForPV_03552576.2_from_0355947.2 PVSystemList=PV_03552576.2_from_0355947.2 Mode=VOLTVAR vvc_curve1=CurveFor_InvForPV_03552576.2_from_0355947.2 DeltaQ_factor=0.01
New Invcontrol.InvForPV_0355.2_from_0355952.2 PVSystemList=PV_0355.2_from_0355952.2 Mode=VOLTVAR vvc_curve1=CurveFor_InvForPV_0355.2_from_0355952.2 DeltaQ_factor=0.01
New Invcontrol.InvForPV_03552576.2_from_0355952.2 PVSystemList=PV_03552576.2_from_0355952.2 Mode=VOLTVAR vvc_curve1=CurveFor_InvForPV_03552576.2_from_0355952.2 DeltaQ_factor=0.01
New Invcontrol.InvForPV_0355.3_from_0355952.3 PVSystemList=PV_0355.3_from_0355952.3 Mode=VOLTVAR vvc_curve1=CurveFor_InvForPV_0355.3_from_0355952.3 DeltaQ_factor=0.01
New Invcontrol.InvForPV_03552576.3_from_0355952.3 PVSystemList=PV_03552576.3_from_0355952.3 Mode=VOLTVAR vvc_curve1=CurveFor_InvForPV_03552576.3_from_0355952.3 DeltaQ_factor=0.01


! Let DSS estimate the voltage bases
Set voltagebases=[12 12]
Calcvoltagebases     ! This also establishes the bus list

Buscoords OutputDSS_buscoords.csv


set maxiterations=1000
