Clear

New Circuit.M1_Reduced bus1=SourceBus basekv=67 pu=1 R1=0.0518 X1=0.1555 R0=0.0518 X0=0.155
New Line.temp_temp2 Phases=3 bus1=temp.1.2.3 bus2=temp2.1.2.3 Units=km Length=0.001 Rmatrix=[1                  0                  0| 0                  1                  0| 0                  0                  1|] Xmatrix=[1                  0                  0| 0                  1                  0| 0                  0                  1|] Cmatrix=[0                  0                  0| 0                  0                  0| 0                  0                  0|]
New Line.temp2_aggld Phases=3 bus1=temp2.1.2.3 bus2=aggld.1.2.3 Units=km Length=0.001 Rmatrix=[1                  0                  0| 0                  1                  0| 0                  0                  1|] Xmatrix=[1                  0                  0| 0                  1                  0| 0                  0                  1|] Cmatrix=[0                  0                  0| 0                  0                  0| 0                  0                  0|]
New Line.temp2_0x0089f0c8 Phases=3 bus1=temp2.1.2.3 bus2=0x0089f0c8.1.2.3 Units=km Length=0.001 Rmatrix=[1                  0                  0| 0                  1                  0| 0                  0                  1|] Xmatrix=[1                  0                  0| 0                  1                  0| 0                  0                  1|] Cmatrix=[0                  0                  0| 0                  0                  0| 0                  0                  0|]
New Line.0x0089f0c8_0x008ca1a0 Phases=3 bus1=0x0089f0c8.1.2.3 bus2=0x008ca1a0.1.2.3 Units=km Length=0.160902 Rmatrix=[0.14217            0.05687            0.05687| 0.05687            0.14217    0.0568700000001| 0.05687    0.0568700000001            0.14217|] Xmatrix=[ 0.185916666666    0.0743666666665    0.0743666666665| 0.0743666666665     0.185916666667    0.0743666666668| 0.0743666666665    0.0743666666668     0.185916666667|] Cmatrix=[0                  0                  0| 0                  0                  0| 0                  0                  0|]
New Line.0x0089f0c8_0x008e61f0 Phases=3 bus1=0x0089f0c8.1.2.3 bus2=0x008e61f0.1.2.3 Units=km Length=0.547847 Rmatrix=[0.14217            0.05687            0.05687| 0.05687            0.14217    0.0568700000001| 0.05687    0.0568700000001            0.14217|] Xmatrix=[ 0.185916666667    0.0743666666668    0.0743666666668| 0.0743666666668     0.185916666667    0.0743666666667| 0.0743666666668    0.0743666666667     0.185916666667|] Cmatrix=[0                  0                  0| 0                  0                  0| 0                  0                  0|]
New Line.0x008f0780_0x008d8138 Phases=1 bus1=0x008f0780.1 bus2=0x008d8138.1 Units=km Length=0.0813589 Rmatrix=1.12861 Xmatrix=0.33793 Cmatrix=0
New Line.0x008d8138_0x008d89d0 Phases=1 bus1=0x008d8138.1 bus2=0x008d89d0.1 Units=km Length=0.114515 Rmatrix=1.12861 Xmatrix=0.33793 Cmatrix=0
New Line.0x008ddcf8_0x008ddb40 Phases=1 bus1=0x008ddcf8.1 bus2=0x008ddb40.1 Units=km Length=0.0384401 Rmatrix=1.12861 Xmatrix=0.33793 Cmatrix=0
New Line.0x008ddb40_0x008e8ce8 Phases=1 bus1=0x008ddb40.1 bus2=0x008e8ce8.1 Units=km Length=0.008381 Rmatrix=1.12861 Xmatrix=0.33793 Cmatrix=0
New Line.0x008cd1c0_0x008dcbc8 Phases=1 bus1=0x008cd1c0.1 bus2=0x008dcbc8.1 Units=km Length=0.020706 Rmatrix=1.12861 Xmatrix=0.33793 Cmatrix=0
New Line.0x008dcbc8_0x008dd0f0 Phases=1 bus1=0x008dcbc8.1 bus2=0x008dd0f0.1 Units=km Length=0.0269372 Rmatrix=1.12861 Xmatrix=0.33793 Cmatrix=0
New Line.0x008e1248_0x008deac0 Phases=1 bus1=0x008e1248.1 bus2=0x008deac0.1 Units=km Length=0.0410587 Rmatrix=1.12861 Xmatrix=0.33793 Cmatrix=0
New Line.0x008deac0_0x008ddcf8 Phases=1 bus1=0x008deac0.1 bus2=0x008ddcf8.1 Units=km Length=0.0180763 Rmatrix=1.12861 Xmatrix=0.33793 Cmatrix=0
New Line.0x008f3280_0x008f37a8 Phases=1 bus1=0x008f3280.1 bus2=0x008f37a8.1 Units=km Length=0.0342286 Rmatrix=1.12861 Xmatrix=0.33793 Cmatrix=0
New Line.0x008f37a8_0x008e5278 Phases=1 bus1=0x008f37a8.1 bus2=0x008e5278.1 Units=km Length=0.170388 Rmatrix=1.12861 Xmatrix=0.33793 Cmatrix=0
New Line.0x008db8d8_0x008d9678 Phases=1 bus1=0x008db8d8.1 bus2=0x008d9678.1 Units=km Length=0.199725 Rmatrix=1.12861 Xmatrix=0.33793 Cmatrix=0
New Line.0x008d9678_0x008ce818 Phases=1 bus1=0x008d9678.1 bus2=0x008ce818.1 Units=km Length=0.124964 Rmatrix=1.12861 Xmatrix=0.33793 Cmatrix=0
New Line.0x008e5278_0x008e74d8 Phases=1 bus1=0x008e5278.1 bus2=0x008e74d8.1 Units=km Length=0.132224 Rmatrix=1.12861 Xmatrix=0.33793 Cmatrix=0
New Line.0x008cd6e8_0x008f0ca8 Phases=1 bus1=0x008cd6e8.1 bus2=0x008f0ca8.1 Units=km Length=0.0447192 Rmatrix=1.12861 Xmatrix=0.33793 Cmatrix=0
New Line.0x008e74d8_0x008f2308 Phases=1 bus1=0x008e74d8.1 bus2=0x008f2308.1 Units=km Length=0.0200417 Rmatrix=1.12861 Xmatrix=0.33793 Cmatrix=0
New Line.0x008dd0f0_0x008c3a80 Phases=1 bus1=0x008dd0f0.1 bus2=0x008c3a80.1 Units=km Length=0.0118864 Rmatrix=1.12861 Xmatrix=0.33793 Cmatrix=0
New Line.0x008e0640_0x008e9e18 Phases=1 bus1=0x008e0640.1 bus2=0x008e9e18.1 Units=km Length=0.0795265 Rmatrix=1.12861 Xmatrix=0.33793 Cmatrix=0
New Line.0x008e9e18_0x008dbc48 Phases=1 bus1=0x008e9e18.1 bus2=0x008dbc48.1 Units=km Length=0.0262016 Rmatrix=1.12861 Xmatrix=0.33793 Cmatrix=0
New Line.0x008dbc48_0x008dbfb8 Phases=1 bus1=0x008dbc48.1 bus2=0x008dbfb8.1 Units=km Length=0.0233355 Rmatrix=1.12861 Xmatrix=0.33793 Cmatrix=0
New Line.0x008ce818_0x008dd7d0 Phases=1 bus1=0x008ce818.1 bus2=0x008dd7d0.1 Units=km Length=0.13613 Rmatrix=1.12861 Xmatrix=0.33793 Cmatrix=0
New Line.0x008dd7d0_0x008d2618 Phases=1 bus1=0x008dd7d0.1 bus2=0x008d2618.1 Units=km Length=0.133986 Rmatrix=1.12861 Xmatrix=0.33793 Cmatrix=0
New Line.0x008d2618_0x008cc5b8 Phases=1 bus1=0x008d2618.1 bus2=0x008cc5b8.1 Units=km Length=0.106304 Rmatrix=1.12861 Xmatrix=0.33793 Cmatrix=0
New Line.0x008cf5d8_0x008dc4e8 Phases=1 bus1=0x008cf5d8.1 bus2=0x008dc4e8.1 Units=km Length=0.0828553 Rmatrix=1.12861 Xmatrix=0.33793 Cmatrix=0
New Line.0x008dc4e8_0x008d2460 Phases=1 bus1=0x008dc4e8.1 bus2=0x008d2460.1 Units=km Length=0.0401161 Rmatrix=1.12861 Xmatrix=0.33793 Cmatrix=0
New Line.0x008d5ed8_0x0089ccb0 Phases=1 bus1=0x008d5ed8.1 bus2=0x0089ccb0.1 Units=km Length=0.017098 Rmatrix=1.12861 Xmatrix=0.33793 Cmatrix=0
New Line.0x008d2460_0x008d5ed8 Phases=1 bus1=0x008d2460.1 bus2=0x008d5ed8.1 Units=km Length=0.041271 Rmatrix=1.12861 Xmatrix=0.33793 Cmatrix=0
New Line.0x008e44b8_0x008db8d8 Phases=1 bus1=0x008e44b8.1 bus2=0x008db8d8.1 Units=km Length=0.157019 Rmatrix=1.12861 Xmatrix=0.33793 Cmatrix=0
New Line.0x008ce2f0_0x008cd6e8 Phases=1 bus1=0x008ce2f0.1 bus2=0x008cd6e8.1 Units=km Length=0.0616753 Rmatrix=1.12861 Xmatrix=0.33793 Cmatrix=0
New Line.0x008d89d0_0x008d1858 Phases=1 bus1=0x008d89d0.1 bus2=0x008d1858.1 Units=km Length=0.0614284 Rmatrix=1.12861 Xmatrix=0.33793 Cmatrix=0
New Line.0x008d1858_0x008d9f10 Phases=1 bus1=0x008d1858.1 bus2=0x008d9f10.1 Units=km Length=0.0385562 Rmatrix=1.12861 Xmatrix=0.33793 Cmatrix=0
New Line.0x008d22a8_0x008e44b8 Phases=1 bus1=0x008d22a8.1 bus2=0x008e44b8.1 Units=km Length=0.348184 Rmatrix=1.12861 Xmatrix=0.33793 Cmatrix=0
New Line.0x008d0708_0x008d5640 Phases=1 bus1=0x008d0708.1 bus2=0x008d5640.1 Units=km Length=0.149676 Rmatrix=1.12861 Xmatrix=0.33793 Cmatrix=0
New Line.0x008cf420_0x008e1248 Phases=1 bus1=0x008cf420.1 bus2=0x008e1248.1 Units=km Length=0.169986 Rmatrix=1.12861 Xmatrix=0.33793 Cmatrix=0
New Line.0x008dbfb8_0x008db720 Phases=1 bus1=0x008dbfb8.1 bus2=0x008db720.1 Units=km Length=0.152465 Rmatrix=1.12861 Xmatrix=0.33793 Cmatrix=0
New Line.0x008db720_0x008db1f8 Phases=1 bus1=0x008db720.1 bus2=0x008db1f8.1 Units=km Length=0.0343891 Rmatrix=1.12861 Xmatrix=0.33793 Cmatrix=0
New Line.0x008996e0_0x008d9830 Phases=1 bus1=0x008996e0.1 bus2=0x008d9830.1 Units=km Length=0.0253621 Rmatrix=1.12861 Xmatrix=0.33793 Cmatrix=0
New Line.0x008d9830_0x008d9ba0 Phases=1 bus1=0x008d9830.1 bus2=0x008d9ba0.1 Units=km Length=0.0188147 Rmatrix=1.12861 Xmatrix=0.33793 Cmatrix=0
New Line.0x008d9ba0_0x008db568 Phases=1 bus1=0x008d9ba0.1 bus2=0x008db568.1 Units=km Length=0.0577868 Rmatrix=1.12861 Xmatrix=0.33793 Cmatrix=0
New Line.0x008db040_0x008c2120 Phases=1 bus1=0x008db040.1 bus2=0x008c2120.1 Units=km Length=0.0475343 Rmatrix=1.12861 Xmatrix=0.33793 Cmatrix=0
New Line.0x008dec78_0x008e8298 Phases=1 bus1=0x008dec78.1 bus2=0x008e8298.1 Units=km Length=0.00855 Rmatrix=1.12861 Xmatrix=0.33793 Cmatrix=0
New Line.0x008db568_0x008db040 Phases=1 bus1=0x008db568.1 bus2=0x008db040.1 Units=km Length=0.047294 Rmatrix=1.12861 Xmatrix=0.33793 Cmatrix=0
New Line.0x008f11d8_0x008e1928 Phases=1 bus1=0x008f11d8.1 bus2=0x008e1928.1 Units=km Length=0.0373674 Rmatrix=1.12861 Xmatrix=0.33793 Cmatrix=0
New Line.0x008e1928_0x008c6fc8 Phases=1 bus1=0x008e1928.1 bus2=0x008c6fc8.1 Units=km Length=0.0774519 Rmatrix=1.12861 Xmatrix=0.33793 Cmatrix=0
New Line.0x008e3358_0x008c8b48 Phases=1 bus1=0x008e3358.1 bus2=0x008c8b48.1 Units=km Length=0.25676 Rmatrix=1.12861 Xmatrix=0.33793 Cmatrix=0
New Line.0x008c8b48_0x008ce2f0 Phases=1 bus1=0x008c8b48.1 bus2=0x008ce2f0.1 Units=km Length=0.0502633 Rmatrix=1.12861 Xmatrix=0.33793 Cmatrix=0
New Line.0x008e6560_0x008e6a88 Phases=1 bus1=0x008e6560.1 bus2=0x008e6a88.1 Units=km Length=0.025696 Rmatrix=1.12861 Xmatrix=0.33793 Cmatrix=0
New Line.0x008e6a88_0x008e7168 Phases=1 bus1=0x008e6a88.1 bus2=0x008e7168.1 Units=km Length=0.030386 Rmatrix=1.12861 Xmatrix=0.33793 Cmatrix=0
New Line.0x008e7168_0x008ea4f8 Phases=1 bus1=0x008e7168.1 bus2=0x008ea4f8.1 Units=km Length=0.0249818 Rmatrix=1.12861 Xmatrix=0.33793 Cmatrix=0
New Line.0x008e8ce8_0x008e6560 Phases=1 bus1=0x008e8ce8.1 bus2=0x008e6560.1 Units=km Length=0.027675 Rmatrix=1.12861 Xmatrix=0.33793 Cmatrix=0
New Line.0x008ea4f8_0x008c3030 Phases=1 bus1=0x008ea4f8.1 bus2=0x008c3030.1 Units=km Length=0.00949212 Rmatrix=1.12861 Xmatrix=0.33793 Cmatrix=0
New Line.0x008de228_0x008c4bb0 Phases=1 bus1=0x008de228.1 bus2=0x008c4bb0.1 Units=km Length=0.0236431 Rmatrix=1.12861 Xmatrix=0.33793 Cmatrix=0
New Line.0x008c4bb0_0x008c5290 Phases=1 bus1=0x008c4bb0.1 bus2=0x008c5290.1 Units=km Length=0.0248094 Rmatrix=1.12861 Xmatrix=0.33793 Cmatrix=0
New Line.0x008c5290_0x008f18b8 Phases=1 bus1=0x008c5290.1 bus2=0x008f18b8.1 Units=km Length=0.018039 Rmatrix=1.12861 Xmatrix=0.33793 Cmatrix=0
New Line.0x008efb78_0x008cf5d8 Phases=1 bus1=0x008efb78.1 bus2=0x008cf5d8.1 Units=km Length=0.331713 Rmatrix=1.12861 Xmatrix=0.33793 Cmatrix=0
New Line.0x008e7690_0x008ddeb0 Phases=1 bus1=0x008e7690.1 bus2=0x008ddeb0.1 Units=km Length=0.0815733 Rmatrix=1.12861 Xmatrix=0.33793 Cmatrix=0
New Line.0x008c9070_0x008de908 Phases=1 bus1=0x008c9070.1 bus2=0x008de908.1 Units=km Length=0.0126587 Rmatrix=1.12861 Xmatrix=0.33793 Cmatrix=0
New Line.0x008de908_0x008d6770 Phases=1 bus1=0x008de908.1 bus2=0x008d6770.1 Units=km Length=0.076461 Rmatrix=1.12861 Xmatrix=0.33793 Cmatrix=0
New Line.0x008ca6c8_0x008c9070 Phases=1 bus1=0x008ca6c8.1 bus2=0x008c9070.1 Units=km Length=0.0646374 Rmatrix=1.12861 Xmatrix=0.33793 Cmatrix=0
New Line.0x008e2598_0x008996e0 Phases=1 bus1=0x008e2598.1 bus2=0x008996e0.1 Units=km Length=0.326854 Rmatrix=1.12861 Xmatrix=0.33793 Cmatrix=0
New Line.0x008dff60_0x008e4d50 Phases=1 bus1=0x008dff60.1 bus2=0x008e4d50.1 Units=km Length=0.0188319 Rmatrix=1.12861 Xmatrix=0.33793 Cmatrix=0
New Line.0x008e4d50_0x008c6050 Phases=1 bus1=0x008e4d50.1 bus2=0x008c6050.1 Units=km Length=0.0111848 Rmatrix=1.12861 Xmatrix=0.33793 Cmatrix=0
New Line.0x008db1f8_0x008de228 Phases=1 bus1=0x008db1f8.1 bus2=0x008de228.1 Units=km Length=0.0341393 Rmatrix=1.12861 Xmatrix=0.33793 Cmatrix=0
New Line.0x008dc858_0x008d0708 Phases=1 bus1=0x008dc858.1 bus2=0x008d0708.1 Units=km Length=0.032906 Rmatrix=1.12861 Xmatrix=0.33793 Cmatrix=0
New Line.0x008cada8_0x008dc858 Phases=1 bus1=0x008cada8.1 bus2=0x008dc858.1 Units=km Length=0.053847 Rmatrix=1.12861 Xmatrix=0.33793 Cmatrix=0
New Line.0x008b87e8_0x008cada8 Phases=1 bus1=0x008b87e8.1 bus2=0x008cada8.1 Units=km Length=0.0178194 Rmatrix=1.12861 Xmatrix=0.33793 Cmatrix=0
New Line.0x008c6fc8_0x008e1ae0 Phases=1 bus1=0x008c6fc8.1 bus2=0x008e1ae0.1 Units=km Length=0.0881753 Rmatrix=1.12861 Xmatrix=0.33793 Cmatrix=0
New Line.0x008e1ae0_0x008c8eb8 Phases=1 bus1=0x008e1ae0.1 bus2=0x008c8eb8.1 Units=km Length=0.00909202 Rmatrix=1.12861 Xmatrix=0.33793 Cmatrix=0
New Line.0x008c6050_0x008c68e8 Phases=1 bus1=0x008c6050.1 bus2=0x008c68e8.1 Units=km Length=0.0639454 Rmatrix=1.12861 Xmatrix=0.33793 Cmatrix=0
New Line.0x008c68e8_0x008f3280 Phases=1 bus1=0x008c68e8.1 bus2=0x008f3280.1 Units=km Length=0.0534139 Rmatrix=1.12861 Xmatrix=0.33793 Cmatrix=0
New Line.0x008e09b0_0x008e93c8 Phases=1 bus1=0x008e09b0.1 bus2=0x008e93c8.1 Units=km Length=0.0281872 Rmatrix=1.12861 Xmatrix=0.33793 Cmatrix=0
New Line.0x008e93c8_0x008ea868 Phases=1 bus1=0x008e93c8.1 bus2=0x008ea868.1 Units=km Length=0.0694028 Rmatrix=1.12861 Xmatrix=0.33793 Cmatrix=0
New Line.0x008ea868_0x008eabd8 Phases=1 bus1=0x008ea868.1 bus2=0x008eabd8.1 Units=km Length=0.0290562 Rmatrix=1.12861 Xmatrix=0.33793 Cmatrix=0
New Line.0x008e4f08_0x008e8b30 Phases=1 bus1=0x008e4f08.1 bus2=0x008e8b30.1 Units=km Length=0.068691 Rmatrix=1.12861 Xmatrix=0.33793 Cmatrix=0
New Line.0x008e8b30_0x008ca6c8 Phases=1 bus1=0x008e8b30.1 bus2=0x008ca6c8.1 Units=km Length=0.104116 Rmatrix=1.12861 Xmatrix=0.33793 Cmatrix=0
New Line.0x008eabd8_0x008eb100 Phases=1 bus1=0x008eabd8.1 bus2=0x008eb100.1 Units=km Length=0.0290532 Rmatrix=1.12861 Xmatrix=0.33793 Cmatrix=0
New Line.0x008eb100_0x008d0c30 Phases=1 bus1=0x008eb100.1 bus2=0x008d0c30.1 Units=km Length=0.06912 Rmatrix=1.12861 Xmatrix=0.33793 Cmatrix=0
New Line.0x008d9f10_0x008dec78 Phases=1 bus1=0x008d9f10.1 bus2=0x008dec78.1 Units=km Length=0.008549 Rmatrix=1.12861 Xmatrix=0.33793 Cmatrix=0
New Line.0x008c8eb8_0x008dff60 Phases=1 bus1=0x008c8eb8.1 bus2=0x008dff60.1 Units=km Length=0.346773 Rmatrix=1.12861 Xmatrix=0.33793 Cmatrix=0
New Line.0x008e1770_0x008f1548 Phases=1 bus1=0x008e1770.2 bus2=0x008f1548.2 Units=km Length=0.0899758 Rmatrix=1.12861 Xmatrix=0.33793 Cmatrix=0
New Line.0x008f1548_0x008e38b0 Phases=1 bus1=0x008f1548.2 bus2=0x008e38b0.2 Units=km Length=0.0359485 Rmatrix=1.12861 Xmatrix=0.33793 Cmatrix=0
New Line.0x008d76e8_0x008d1330 Phases=1 bus1=0x008d76e8.2 bus2=0x008d1330.2 Units=km Length=0.0833053 Rmatrix=1.12861 Xmatrix=0.33793 Cmatrix=0
New Line.0x008d1330_0x008dd618 Phases=1 bus1=0x008d1330.2 bus2=0x008dd618.2 Units=km Length=0.129202 Rmatrix=1.12861 Xmatrix=0.33793 Cmatrix=0
New Line.0x008d2b40_0x008d3ac0 Phases=1 bus1=0x008d2b40.2 bus2=0x008d3ac0.2 Units=km Length=0.094369 Rmatrix=1.12861 Xmatrix=0.33793 Cmatrix=0
New Line.0x008d3ac0_0x008f3b18 Phases=1 bus1=0x008d3ac0.2 bus2=0x008f3b18.2 Units=km Length=0.020193 Rmatrix=1.12861 Xmatrix=0.33793 Cmatrix=0
New Line.0x0089d700_0x0089e4c0 Phases=1 bus1=0x0089d700.2 bus2=0x0089e4c0.2 Units=km Length=0.0453055 Rmatrix=1.12861 Xmatrix=0.33793 Cmatrix=0
New Line.0x0089e4c0_0x008c5970 Phases=1 bus1=0x0089e4c0.2 bus2=0x008c5970.2 Units=km Length=0.0923253 Rmatrix=1.12861 Xmatrix=0.33793 Cmatrix=0
New Line.0x008e0d20_0x008dfbf0 Phases=1 bus1=0x008e0d20.2 bus2=0x008dfbf0.2 Units=km Length=0.0681666 Rmatrix=1.12861 Xmatrix=0.33793 Cmatrix=0
New Line.0x008dfbf0_0x008d0398 Phases=1 bus1=0x008dfbf0.2 bus2=0x008d0398.2 Units=km Length=0.0181325 Rmatrix=1.12861 Xmatrix=0.33793 Cmatrix=0
New Line.0x008d0398_0x008c7338 Phases=1 bus1=0x008d0398.2 bus2=0x008c7338.2 Units=km Length=0.0712477 Rmatrix=1.12861 Xmatrix=0.33793 Cmatrix=0
New Line.0x008c7338_0x008f3960 Phases=1 bus1=0x008c7338.2 bus2=0x008f3960.2 Units=km Length=0.0188246 Rmatrix=1.12861 Xmatrix=0.33793 Cmatrix=0
New Line.0x008f3960_0x008ceb88 Phases=1 bus1=0x008f3960.2 bus2=0x008ceb88.2 Units=km Length=0.0424714 Rmatrix=1.12861 Xmatrix=0.33793 Cmatrix=0
New Line.0x008d33e0_0x008d3598 Phases=1 bus1=0x008d33e0.2 bus2=0x008d3598.2 Units=km Length=0.146091 Rmatrix=1.12861 Xmatrix=0.33793 Cmatrix=0
New Line.0x008d3598_0x008dd988 Phases=1 bus1=0x008d3598.2 bus2=0x008dd988.2 Units=km Length=0.0740843 Rmatrix=1.12861 Xmatrix=0.33793 Cmatrix=0
New Line.0x008dd988_0x008de598 Phases=1 bus1=0x008dd988.2 bus2=0x008de598.2 Units=km Length=0.019285 Rmatrix=1.12861 Xmatrix=0.33793 Cmatrix=0
New Line.0x008d9d58_0x008cc090 Phases=1 bus1=0x008d9d58.2 bus2=0x008cc090.2 Units=km Length=0.187833 Rmatrix=1.12861 Xmatrix=0.33793 Cmatrix=0
New Line.0x008cc090_0x008cd530 Phases=1 bus1=0x008cc090.2 bus2=0x008cd530.2 Units=km Length=0.090326 Rmatrix=1.12861 Xmatrix=0.33793 Cmatrix=0
New Line.0x008cd530_0x008cdc10 Phases=1 bus1=0x008cd530.2 bus2=0x008cdc10.2 Units=km Length=0.0305348 Rmatrix=1.12861 Xmatrix=0.33793 Cmatrix=0
New Line.0x008cdc10_0x008c80f8 Phases=1 bus1=0x008cdc10.2 bus2=0x008c80f8.2 Units=km Length=0.0183204 Rmatrix=1.12861 Xmatrix=0.33793 Cmatrix=0
New Line.0x008e07f8_0x008d4510 Phases=1 bus1=0x008e07f8.2 bus2=0x008d4510.2 Units=km Length=0.0603165 Rmatrix=1.12861 Xmatrix=0.33793 Cmatrix=0
New Line.0x008d4510_0x008d33e0 Phases=1 bus1=0x008d4510.2 bus2=0x008d33e0.2 Units=km Length=0.0641646 Rmatrix=1.12861 Xmatrix=0.33793 Cmatrix=0
New Line.0x008e2c78_0x008b8d10 Phases=1 bus1=0x008e2c78.2 bus2=0x008b8d10.2 Units=km Length=0.269816 Rmatrix=1.12861 Xmatrix=0.33793 Cmatrix=0
New Line.0x008b8d10_0x008eb470 Phases=1 bus1=0x008b8d10.2 bus2=0x008eb470.2 Units=km Length=0.0246745 Rmatrix=1.12861 Xmatrix=0.33793 Cmatrix=0
New Line.0x008d5118_0x008c5ce0 Phases=1 bus1=0x008d5118.2 bus2=0x008c5ce0.2 Units=km Length=0.0388935 Rmatrix=1.12861 Xmatrix=0.33793 Cmatrix=0
New Line.0x008d1f38_0x008c4688 Phases=1 bus1=0x008d1f38.2 bus2=0x008c4688.2 Units=km Length=0.128446 Rmatrix=1.12861 Xmatrix=0.33793 Cmatrix=0
New Line.0x008dd618_0x008d1f38 Phases=1 bus1=0x008dd618.2 bus2=0x008d1f38.2 Units=km Length=0.072481 Rmatrix=1.12861 Xmatrix=0.33793 Cmatrix=0
New Line.0x008ce138_0x0089e150 Phases=1 bus1=0x008ce138.2 bus2=0x0089e150.2 Units=km Length=0.0386609 Rmatrix=1.12861 Xmatrix=0.33793 Cmatrix=0
New Line.0x008f2830_0x008de3e0 Phases=1 bus1=0x008f2830.2 bus2=0x008de3e0.2 Units=km Length=0.071385 Rmatrix=1.12861 Xmatrix=0.33793 Cmatrix=0
New Line.0x008de3e0_0x008d76e8 Phases=1 bus1=0x008de3e0.2 bus2=0x008d76e8.2 Units=km Length=0.0377663 Rmatrix=1.12861 Xmatrix=0.33793 Cmatrix=0
New Line.0x008da7a8_0x008ce138 Phases=1 bus1=0x008da7a8.2 bus2=0x008ce138.2 Units=km Length=0.0531621 Rmatrix=1.12861 Xmatrix=0.33793 Cmatrix=0
New Line.0x008ef498_0x008d01e0 Phases=1 bus1=0x008ef498.2 bus2=0x008d01e0.2 Units=km Length=0.535682 Rmatrix=1.12861 Xmatrix=0.33793 Cmatrix=0
New Line.0x008d01e0_0x008da7a8 Phases=1 bus1=0x008d01e0.2 bus2=0x008da7a8.2 Units=km Length=0.0365103 Rmatrix=1.12861 Xmatrix=0.33793 Cmatrix=0
New Line.0x008de598_0x008cd8a0 Phases=1 bus1=0x008de598.2 bus2=0x008cd8a0.2 Units=km Length=0.149102 Rmatrix=1.12861 Xmatrix=0.33793 Cmatrix=0
New Line.0x008ea6b0_0x008c44d0 Phases=1 bus1=0x008ea6b0.2 bus2=0x008c44d0.2 Units=km Length=0.027432 Rmatrix=1.12861 Xmatrix=0.33793 Cmatrix=0
New Line.0x008cd8a0_0x008ea6b0 Phases=1 bus1=0x008cd8a0.2 bus2=0x008ea6b0.2 Units=km Length=0.013626 Rmatrix=1.12861 Xmatrix=0.33793 Cmatrix=0
New Line.0x008c5970_0x008ca358 Phases=1 bus1=0x008c5970.2 bus2=0x008ca358.2 Units=km Length=0.120704 Rmatrix=1.12861 Xmatrix=0.33793 Cmatrix=0
New Line.0x008ca358_0x008ef808 Phases=1 bus1=0x008ca358.2 bus2=0x008ef808.2 Units=km Length=0.0211115 Rmatrix=1.12861 Xmatrix=0.33793 Cmatrix=0
New Line.0x008eb470_0x008d5118 Phases=1 bus1=0x008eb470.2 bus2=0x008d5118.2 Units=km Length=0.0400315 Rmatrix=1.12861 Xmatrix=0.33793 Cmatrix=0
New Line.0x008c2648_0x008c3558 Phases=1 bus1=0x008c2648.2 bus2=0x008c3558.2 Units=km Length=0.00874918 Rmatrix=1.12861 Xmatrix=0.33793 Cmatrix=0
New Line.0x0089bf70_0x008c2648 Phases=1 bus1=0x0089bf70.2 bus2=0x008c2648.2 Units=km Length=0.025727 Rmatrix=1.12861 Xmatrix=0.33793 Cmatrix=0
New Line.0x008c2490_0x0089bf70 Phases=1 bus1=0x008c2490.2 bus2=0x0089bf70.2 Units=km Length=0.0173101 Rmatrix=1.12861 Xmatrix=0.33793 Cmatrix=0
New Line.0x008c2b70_0x008c2490 Phases=1 bus1=0x008c2b70.2 bus2=0x008c2490.2 Units=km Length=0.0320271 Rmatrix=1.12861 Xmatrix=0.33793 Cmatrix=0
New Line.0x0089d020_0x008c2b70 Phases=1 bus1=0x0089d020.2 bus2=0x008c2b70.2 Units=km Length=0.0735574 Rmatrix=1.12861 Xmatrix=0.33793 Cmatrix=0
New Line.0x008cbd20_0x0089d020 Phases=1 bus1=0x008cbd20.2 bus2=0x0089d020.2 Units=km Length=0.0911348 Rmatrix=1.12861 Xmatrix=0.33793 Cmatrix=0
New Line.0x008e38b0_0x008e7320 Phases=1 bus1=0x008e38b0.2 bus2=0x008e7320.2 Units=km Length=0.0129078 Rmatrix=1.12861 Xmatrix=0.33793 Cmatrix=0
New Line.0x008ce9d0_0x0089dde0 Phases=1 bus1=0x008ce9d0.2 bus2=0x0089dde0.2 Units=km Length=0.0629704 Rmatrix=1.12861 Xmatrix=0.33793 Cmatrix=0
New Line.0x0089dde0_0x0089d700 Phases=1 bus1=0x0089dde0.2 bus2=0x0089d700.2 Units=km Length=0.0359514 Rmatrix=1.12861 Xmatrix=0.33793 Cmatrix=0
New Line.0x008e7320_0x008e7848 Phases=1 bus1=0x008e7320.2 bus2=0x008e7848.2 Units=km Length=0.0119263 Rmatrix=1.12861 Xmatrix=0.33793 Cmatrix=0
New Line.0x008e7848_0x008e4300 Phases=1 bus1=0x008e7848.2 bus2=0x008e4300.2 Units=km Length=0.0119329 Rmatrix=1.12861 Xmatrix=0.33793 Cmatrix=0
New Line.0x008d7dc8_0x008eda38 Phases=1 bus1=0x008d7dc8.2 bus2=0x008eda38.2 Units=km Length=0.0410877 Rmatrix=1.12861 Xmatrix=0.33793 Cmatrix=0
New Line.0x008eda38_0x0089fcd0 Phases=1 bus1=0x008eda38.2 bus2=0x0089fcd0.2 Units=km Length=0.00908786 Rmatrix=1.12861 Xmatrix=0.33793 Cmatrix=0
New Line.0x008e4300_0x008e2750 Phases=1 bus1=0x008e4300.2 bus2=0x008e2750.2 Units=km Length=0.0163082 Rmatrix=1.12861 Xmatrix=0.33793 Cmatrix=0
New Line.0x008e2750_0x008e2ac0 Phases=1 bus1=0x008e2750.2 bus2=0x008e2ac0.2 Units=km Length=0.0253631 Rmatrix=1.12861 Xmatrix=0.33793 Cmatrix=0
New Line.0x008e2ac0_0x008d7dc8 Phases=1 bus1=0x008e2ac0.2 bus2=0x008d7dc8.2 Units=km Length=0.0492334 Rmatrix=1.12861 Xmatrix=0.33793 Cmatrix=0
New Line.0x008c63c0_0x008f2830 Phases=1 bus1=0x008c63c0.2 bus2=0x008f2830.2 Units=km Length=0.107512 Rmatrix=1.12861 Xmatrix=0.33793 Cmatrix=0
New Line.0x008cce50_0x008d3e30 Phases=1 bus1=0x008cce50.2 bus2=0x008d3e30.2 Units=km Length=0.036168 Rmatrix=1.12861 Xmatrix=0.33793 Cmatrix=0
New Line.0x008d3e30_0x008d14e8 Phases=1 bus1=0x008d3e30.2 bus2=0x008d14e8.2 Units=km Length=0.0960566 Rmatrix=1.12861 Xmatrix=0.33793 Cmatrix=0
New Line.0x008d0a78_0x008d0de8 Phases=1 bus1=0x008d0a78.2 bus2=0x008d0de8.2 Units=km Length=0.107904 Rmatrix=1.12861 Xmatrix=0.33793 Cmatrix=0
New Line.0x008d0de8_0x008cce50 Phases=1 bus1=0x008d0de8.2 bus2=0x008cce50.2 Units=km Length=0.202228 Rmatrix=1.12861 Xmatrix=0.33793 Cmatrix=0
New Line.0x008d14e8_0x008d0550 Phases=1 bus1=0x008d14e8.2 bus2=0x008d0550.2 Units=km Length=0.0207098 Rmatrix=1.12861 Xmatrix=0.33793 Cmatrix=0
New Line.0x008ee368_0x008d8660 Phases=1 bus1=0x008ee368.2 bus2=0x008d8660.2 Units=km Length=0.0455607 Rmatrix=1.12861 Xmatrix=0.33793 Cmatrix=0
New Line.0x008d8660_0x008d4358 Phases=1 bus1=0x008d8660.2 bus2=0x008d4358.2 Units=km Length=0.0709026 Rmatrix=1.12861 Xmatrix=0.33793 Cmatrix=0
New Line.0x008d4358_0x008d1bc8 Phases=1 bus1=0x008d4358.2 bus2=0x008d1bc8.2 Units=km Length=0.0622668 Rmatrix=1.12861 Xmatrix=0.33793 Cmatrix=0
New Line.0x008d1bc8_0x008d6ae0 Phases=1 bus1=0x008d1bc8.2 bus2=0x008d6ae0.2 Units=km Length=0.0377803 Rmatrix=1.12861 Xmatrix=0.33793 Cmatrix=0
New Line.0x008d6ae0_0x0089f7a8 Phases=1 bus1=0x008d6ae0.2 bus2=0x0089f7a8.2 Units=km Length=0.0163439 Rmatrix=1.12861 Xmatrix=0.33793 Cmatrix=0
New Line.0x008e0b68_0x008ee520 Phases=1 bus1=0x008e0b68.2 bus2=0x008ee520.2 Units=km Length=0.258539 Rmatrix=1.12861 Xmatrix=0.33793 Cmatrix=0
New Line.0x008ee520_0x008d99e8 Phases=1 bus1=0x008ee520.2 bus2=0x008d99e8.2 Units=km Length=0.121188 Rmatrix=1.12861 Xmatrix=0.33793 Cmatrix=0
New Line.0x008d99e8_0x008e07f8 Phases=1 bus1=0x008d99e8.2 bus2=0x008e07f8.2 Units=km Length=0.034192 Rmatrix=1.12861 Xmatrix=0.33793 Cmatrix=0
New Line.0x008f1a70_0x008e0b68 Phases=1 bus1=0x008f1a70.2 bus2=0x008e0b68.2 Units=km Length=0.034861 Rmatrix=1.12861 Xmatrix=0.33793 Cmatrix=0
New Line.0x008c7a18_0x008ce660 Phases=1 bus1=0x008c7a18.2 bus2=0x008ce660.2 Units=km Length=0.0742344 Rmatrix=1.12861 Xmatrix=0.33793 Cmatrix=0
New Line.0x008c8468_0x008c7a18 Phases=1 bus1=0x008c8468.2 bus2=0x008c7a18.2 Units=km Length=0.0447983 Rmatrix=1.12861 Xmatrix=0.33793 Cmatrix=0
New Line.0x008c8990_0x008c8468 Phases=1 bus1=0x008c8990.2 bus2=0x008c8468.2 Units=km Length=0.0449453 Rmatrix=1.12861 Xmatrix=0.33793 Cmatrix=0
New Line.0x008cb488_0x008c8990 Phases=1 bus1=0x008cb488.2 bus2=0x008c8990.2 Units=km Length=0.0652388 Rmatrix=1.12861 Xmatrix=0.33793 Cmatrix=0
New Line.0x008e4828_0x008cb488 Phases=1 bus1=0x008e4828.2 bus2=0x008cb488.2 Units=km Length=0.114147 Rmatrix=1.12861 Xmatrix=0.33793 Cmatrix=0
New Line.0x008ce4a8_0x0089c260 Phases=1 bus1=0x008ce4a8.3 bus2=0x0089c260.3 Units=km Length=0.0361308 Rmatrix=1.12861 Xmatrix=0.33793 Cmatrix=0
New Line.0x0089c260_0x008e49e0 Phases=1 bus1=0x0089c260.3 bus2=0x008e49e0.3 Units=km Length=0.0178333 Rmatrix=1.12861 Xmatrix=0.33793 Cmatrix=0
New Line.0x008e49e0_0x008dcf38 Phases=1 bus1=0x008e49e0.3 bus2=0x008dcf38.3 Units=km Length=0.00501062 Rmatrix=1.12861 Xmatrix=0.33793 Cmatrix=0
New Line.0x008dcf38_0x008cb118 Phases=1 bus1=0x008dcf38.3 bus2=0x008cb118.3 Units=km Length=0.034809 Rmatrix=1.12861 Xmatrix=0.33793 Cmatrix=0
New Line.0x008e1090_0x008eb998 Phases=1 bus1=0x008e1090.3 bus2=0x008eb998.3 Units=km Length=0.154775 Rmatrix=1.12861 Xmatrix=0.33793 Cmatrix=0
New Line.0x008eb998_0x008eb2b8 Phases=1 bus1=0x008eb998.3 bus2=0x008eb2b8.3 Units=km Length=0.017435 Rmatrix=1.12861 Xmatrix=0.33793 Cmatrix=0
New Line.0x008eb2b8_0x008ed358 Phases=1 bus1=0x008eb2b8.3 bus2=0x008ed358.3 Units=km Length=0.0301466 Rmatrix=1.12861 Xmatrix=0.33793 Cmatrix=0
New Line.0x008ed358_0x008e2fe8 Phases=1 bus1=0x008ed358.3 bus2=0x008e2fe8.3 Units=km Length=0.042252 Rmatrix=1.12861 Xmatrix=0.33793 Cmatrix=0
New Line.0x008d6c98_0x008dcd80 Phases=1 bus1=0x008d6c98.3 bus2=0x008dcd80.3 Units=km Length=0.127809 Rmatrix=1.12861 Xmatrix=0.33793 Cmatrix=0
New Line.0x008e2fe8_0x008e3510 Phases=1 bus1=0x008e2fe8.3 bus2=0x008e3510.3 Units=km Length=0.0380024 Rmatrix=1.12861 Xmatrix=0.33793 Cmatrix=0
New Line.0x008e3510_0x008e68d0 Phases=1 bus1=0x008e3510.3 bus2=0x008e68d0.3 Units=km Length=0.0315057 Rmatrix=1.12861 Xmatrix=0.33793 Cmatrix=0
New Line.0x008e68d0_0x0089d390 Phases=1 bus1=0x008e68d0.3 bus2=0x0089d390.3 Units=km Length=0.0123307 Rmatrix=1.12861 Xmatrix=0.33793 Cmatrix=0
New Line.0x008dee30_0x008e8450 Phases=1 bus1=0x008dee30.3 bus2=0x008e8450.3 Units=km Length=0.02064 Rmatrix=1.12861 Xmatrix=0.33793 Cmatrix=0
New Line.0x008e8450_0x008c4d68 Phases=1 bus1=0x008e8450.3 bus2=0x008c4d68.3 Units=km Length=0.024992 Rmatrix=1.12861 Xmatrix=0.33793 Cmatrix=0
New Line.0x008e1400_0x008df1a0 Phases=1 bus1=0x008e1400.3 bus2=0x008df1a0.3 Units=km Length=0.032246 Rmatrix=1.12861 Xmatrix=0.33793 Cmatrix=0
New Line.0x008df1a0_0x008dee30 Phases=1 bus1=0x008df1a0.3 bus2=0x008dee30.3 Units=km Length=0.031131 Rmatrix=1.12861 Xmatrix=0.33793 Cmatrix=0
New Line.0x008c4d68_0x008df6c8 Phases=1 bus1=0x008c4d68.3 bus2=0x008df6c8.3 Units=km Length=0.049023 Rmatrix=1.12861 Xmatrix=0.33793 Cmatrix=0
New Line.0x008e8978_0x0089d8b8 Phases=1 bus1=0x008e8978.3 bus2=0x0089d8b8.3 Units=km Length=0.0301281 Rmatrix=1.12861 Xmatrix=0.33793 Cmatrix=0
New Line.0x008df6c8_0x008f3438 Phases=1 bus1=0x008df6c8.3 bus2=0x008f3438.3 Units=km Length=0.0085002 Rmatrix=1.12861 Xmatrix=0.33793 Cmatrix=0
New Line.0x008d08c0_0x008da438 Phases=1 bus1=0x008d08c0.3 bus2=0x008da438.3 Units=km Length=0.0534844 Rmatrix=1.12861 Xmatrix=0.33793 Cmatrix=0
New Line.0x008da438_0x008da960 Phases=1 bus1=0x008da438.3 bus2=0x008da960.3 Units=km Length=0.0124263 Rmatrix=1.12861 Xmatrix=0.33793 Cmatrix=0
New Line.0x008da960_0x008dacd0 Phases=1 bus1=0x008da960.3 bus2=0x008dacd0.3 Units=km Length=0.0430907 Rmatrix=1.12861 Xmatrix=0.33793 Cmatrix=0
New Line.0x008dacd0_0x008e0488 Phases=1 bus1=0x008dacd0.3 bus2=0x008e0488.3 Units=km Length=0.0452389 Rmatrix=1.12861 Xmatrix=0.33793 Cmatrix=0
New Line.0x008d1a10_0x008d4880 Phases=1 bus1=0x008d1a10.3 bus2=0x008d4880.3 Units=km Length=0.197763 Rmatrix=1.12861 Xmatrix=0.33793 Cmatrix=0
New Line.0x008d4880_0x008d4f60 Phases=1 bus1=0x008d4880.3 bus2=0x008d4f60.3 Units=km Length=0.0795731 Rmatrix=1.12861 Xmatrix=0.33793 Cmatrix=0
New Line.0x008d4f60_0x008d5d20 Phases=1 bus1=0x008d4f60.3 bus2=0x008d5d20.3 Units=km Length=0.183077 Rmatrix=1.12861 Xmatrix=0.33793 Cmatrix=0
New Line.0x008d5d20_0x008c2ee0 Phases=1 bus1=0x008d5d20.3 bus2=0x008c2ee0.3 Units=km Length=0.015219 Rmatrix=1.12861 Xmatrix=0.33793 Cmatrix=0
New Line.0x008eb7e0_0x008dc330 Phases=1 bus1=0x008eb7e0.3 bus2=0x008dc330.3 Units=km Length=0.202261 Rmatrix=1.12861 Xmatrix=0.33793 Cmatrix=0
New Line.0x008dc330_0x008d4bf0 Phases=1 bus1=0x008dc330.3 bus2=0x008d4bf0.3 Units=km Length=0.020483 Rmatrix=1.12861 Xmatrix=0.33793 Cmatrix=0
New Line.0x008d82f0_0x00899528 Phases=1 bus1=0x008d82f0.3 bus2=0x00899528.3 Units=km Length=0.207479 Rmatrix=1.12861 Xmatrix=0.33793 Cmatrix=0
New Line.0x00899528_0x008d6c98 Phases=1 bus1=0x00899528.3 bus2=0x008d6c98.3 Units=km Length=0.134606 Rmatrix=1.12861 Xmatrix=0.33793 Cmatrix=0
New Line.0x008d4bf0_0x008d5488 Phases=1 bus1=0x008d4bf0.3 bus2=0x008d5488.3 Units=km Length=0.135574 Rmatrix=1.12861 Xmatrix=0.33793 Cmatrix=0
New Line.0x008c50d8_0x008c49f8 Phases=1 bus1=0x008c50d8.3 bus2=0x008c49f8.3 Units=km Length=0.0934253 Rmatrix=1.12861 Xmatrix=0.33793 Cmatrix=0
New Line.0x008d5488_0x008d6400 Phases=1 bus1=0x008d5488.3 bus2=0x008d6400.3 Units=km Length=0.133319 Rmatrix=1.12861 Xmatrix=0.33793 Cmatrix=0
New Line.0x008d6400_0x008de750 Phases=1 bus1=0x008d6400.3 bus2=0x008de750.3 Units=km Length=0.079619 Rmatrix=1.12861 Xmatrix=0.33793 Cmatrix=0
New Line.0x008ee890_0x008d08c0 Phases=1 bus1=0x008ee890.3 bus2=0x008d08c0.3 Units=km Length=0.275593 Rmatrix=1.12861 Xmatrix=0.33793 Cmatrix=0
New Line.0x008ea188_0x008ccae0 Phases=1 bus1=0x008ea188.3 bus2=0x008ccae0.3 Units=km Length=0.0232511 Rmatrix=1.12861 Xmatrix=0.33793 Cmatrix=0
New Line.0x008ccae0_0x008e5cc8 Phases=1 bus1=0x008ccae0.3 bus2=0x008e5cc8.3 Units=km Length=0.0522982 Rmatrix=1.12861 Xmatrix=0.33793 Cmatrix=0
New Line.0x0089ed58_0x008ea188 Phases=1 bus1=0x0089ed58.3 bus2=0x008ea188.3 Units=km Length=0.12574 Rmatrix=1.12861 Xmatrix=0.33793 Cmatrix=0
New Line.0x008cb118_0x0089c940 Phases=1 bus1=0x008cb118.3 bus2=0x0089c940.3 Units=km Length=0.0145458 Rmatrix=1.12861 Xmatrix=0.33793 Cmatrix=0
New Line.0x008eef70_0x008cfe70 Phases=1 bus1=0x008eef70.3 bus2=0x008cfe70.3 Units=km Length=0.440365 Rmatrix=1.12861 Xmatrix=0.33793 Cmatrix=0
New Line.0x008cfe70_0x008cf790 Phases=1 bus1=0x008cfe70.3 bus2=0x008cf790.3 Units=km Length=0.0390725 Rmatrix=1.12861 Xmatrix=0.33793 Cmatrix=0
New Line.0x008f1390_0x008eb7e0 Phases=1 bus1=0x008f1390.3 bus2=0x008eb7e0.3 Units=km Length=0.0755058 Rmatrix=1.12861 Xmatrix=0.33793 Cmatrix=0
New Line.0x008cb9b0_0x008cc770 Phases=1 bus1=0x008cb9b0.3 bus2=0x008cc770.3 Units=km Length=0.0448731 Rmatrix=1.12861 Xmatrix=0.33793 Cmatrix=0
New Line.0x008cc770_0x008cf0b0 Phases=1 bus1=0x008cc770.3 bus2=0x008cf0b0.3 Units=km Length=0.026324 Rmatrix=1.12861 Xmatrix=0.33793 Cmatrix=0
New Line.0x008e3c20_0x008e7f28 Phases=1 bus1=0x008e3c20.3 bus2=0x008e7f28.3 Units=km Length=0.0908039 Rmatrix=1.12861 Xmatrix=0.33793 Cmatrix=0
New Line.0x008e7f28_0x008c7860 Phases=1 bus1=0x008e7f28.3 bus2=0x008c7860.3 Units=km Length=0.0992653 Rmatrix=1.12861 Xmatrix=0.33793 Cmatrix=0
New Line.0x0089c940_0x0089f280 Phases=1 bus1=0x0089c940.3 bus2=0x0089f280.3 Units=km Length=0.0425894 Rmatrix=1.12861 Xmatrix=0.33793 Cmatrix=0
New Line.0x008edbf0_0x008d3228 Phases=1 bus1=0x008edbf0.3 bus2=0x008d3228.3 Units=km Length=0.373574 Rmatrix=1.12861 Xmatrix=0.33793 Cmatrix=0
New Line.0x008d3228_0x008eaa20 Phases=1 bus1=0x008d3228.3 bus2=0x008eaa20.3 Units=km Length=0.0392271 Rmatrix=1.12861 Xmatrix=0.33793 Cmatrix=0
New Line.0x008eaa20_0x008d41a0 Phases=1 bus1=0x008eaa20.3 bus2=0x008d41a0.3 Units=km Length=0.0512021 Rmatrix=1.12861 Xmatrix=0.33793 Cmatrix=0
New Line.0x008d41a0_0x008ea340 Phases=1 bus1=0x008d41a0.3 bus2=0x008ea340.3 Units=km Length=0.0353117 Rmatrix=1.12861 Xmatrix=0.33793 Cmatrix=0
New Line.0x0089eba0_0x008c9750 Phases=1 bus1=0x0089eba0.3 bus2=0x008c9750.3 Units=km Length=0.0669329 Rmatrix=1.12861 Xmatrix=0.33793 Cmatrix=0
New Line.0x0089f280_0x0089eba0 Phases=1 bus1=0x0089f280.3 bus2=0x0089eba0.3 Units=km Length=0.0466823 Rmatrix=1.12861 Xmatrix=0.33793 Cmatrix=0
New Line.0x008f0af0_0x008d82f0 Phases=1 bus1=0x008f0af0.3 bus2=0x008d82f0.3 Units=km Length=0.125356 Rmatrix=1.12861 Xmatrix=0.33793 Cmatrix=0
New Line.0x008c7860_0x008cabf0 Phases=1 bus1=0x008c7860.3 bus2=0x008cabf0.3 Units=km Length=0.023992 Rmatrix=1.12861 Xmatrix=0.33793 Cmatrix=0
New Line.0x008e87c0_0x008e8978 Phases=1 bus1=0x008e87c0.3 bus2=0x008e8978.3 Units=km Length=0.005791 Rmatrix=1.12861 Xmatrix=0.33793 Cmatrix=0
New Line.0x008cf0b0_0x008c7d88 Phases=1 bus1=0x008cf0b0.3 bus2=0x008c7d88.3 Units=km Length=0.015885 Rmatrix=1.12861 Xmatrix=0.33793 Cmatrix=0
New Line.0x008cf790_0x008c50d8 Phases=1 bus1=0x008cf790.3 bus2=0x008c50d8.3 Units=km Length=0.0703202 Rmatrix=1.12861 Xmatrix=0.33793 Cmatrix=0
New Line.0x008e5cc8_0x008da5f0 Phases=1 bus1=0x008e5cc8.3 bus2=0x008da5f0.3 Units=km Length=0.003934 Rmatrix=1.12861 Xmatrix=0.33793 Cmatrix=0
New Line.0x008d1178_0x008ced40 Phases=1 bus1=0x008d1178.3 bus2=0x008ced40.3 Units=km Length=0.372788 Rmatrix=1.12861 Xmatrix=0.33793 Cmatrix=0
New Line.0x008ced40_0x008ceef8 Phases=1 bus1=0x008ced40.3 bus2=0x008ceef8.3 Units=km Length=0.0591673 Rmatrix=1.12861 Xmatrix=0.33793 Cmatrix=0
New Line.0x008da280_0x008cb9b0 Phases=1 bus1=0x008da280.3 bus2=0x008cb9b0.3 Units=km Length=0.125457 Rmatrix=1.12861 Xmatrix=0.33793 Cmatrix=0
New Line.0x008da5f0_0x008e87c0 Phases=1 bus1=0x008da5f0.3 bus2=0x008e87c0.3 Units=km Length=0.018288 Rmatrix=1.12861 Xmatrix=0.33793 Cmatrix=0
New Line.0x008c93e0_0x008d7008 Phases=1 bus1=0x008c93e0.3 bus2=0x008d7008.3 Units=km Length=0.172616 Rmatrix=1.12861 Xmatrix=0.33793 Cmatrix=0
New Line.0x008d7008_0x0089d1d8 Phases=1 bus1=0x008d7008.3 bus2=0x0089d1d8.3 Units=km Length=0.00977621 Rmatrix=1.12861 Xmatrix=0.33793 Cmatrix=0
New Line.0x008ceef8_0x008d7c10 Phases=1 bus1=0x008ceef8.3 bus2=0x008d7c10.3 Units=km Length=0.0496289 Rmatrix=1.12861 Xmatrix=0.33793 Cmatrix=0
New Line.0x008d7c10_0x008d78a0 Phases=1 bus1=0x008d7c10.3 bus2=0x008d78a0.3 Units=km Length=0.0979798 Rmatrix=1.12861 Xmatrix=0.33793 Cmatrix=0
New Line.0x008d78a0_0x008d8d40 Phases=1 bus1=0x008d78a0.3 bus2=0x008d8d40.3 Units=km Length=0.199953 Rmatrix=1.12861 Xmatrix=0.33793 Cmatrix=0
New Line.0x008d8d40_0x008c93e0 Phases=1 bus1=0x008d8d40.3 bus2=0x008c93e0.3 Units=km Length=0.131125 Rmatrix=1.12861 Xmatrix=0.33793 Cmatrix=0
New Line.0x0089b890_0x008e80e0 Phases=3 bus1=0x0089b890.1.2.3 bus2=0x008e80e0.1.2.3 Units=km Length=0.001 Rmatrix=[0.999999999999                  0                  0|              0                  1                  0|              0                  0                  1|] Xmatrix=[0.999999999999                  0                  0|              0     0.999999999999                  0|              0                  0                  1|] Cmatrix=[0                  0                  0| 0                  0                  0| 0                  0                  0|]
New Line.0x008d3750_0x0089b890 Phases=3 bus1=0x008d3750.1.2.3 bus2=0x0089b890.1.2.3 Units=km Length=0.019066 Rmatrix=[ 0.191383333333    0.0765533333334    0.0765533333334| 0.0765533333334     0.191383333333    0.0765533333334| 0.0765533333334    0.0765533333334     0.191383333333|] Xmatrix=[ 0.191383333333    0.0765533333334    0.0765533333333| 0.0765533333334     0.191383333333    0.0765533333333| 0.0765533333333    0.0765533333333     0.191383333333|] Cmatrix=[0                  0                  0| 0                  0                  0| 0                  0                  0|]
New Line.0x008d3750_0x008efee8 Phases=3 bus1=0x008d3750.1.2.3 bus2=0x008efee8.1.2.3 Units=km Length=0.03048 Rmatrix=[ 0.191383333333    0.0765533333333    0.0765533333333| 0.0765533333333     0.191383333333    0.0765533333333| 0.0765533333333    0.0765533333333     0.191383333333|] Xmatrix=[ 0.191383333333    0.0765533333333    0.0765533333333| 0.0765533333333     0.191383333333    0.0765533333333| 0.0765533333333    0.0765533333333     0.191383333333|] Cmatrix=[0                  0                  0| 0                  0                  0| 0                  0                  0|]
New Line.0x0089ba48_0x008e6fb0 Phases=3 bus1=0x0089ba48.1.2.3 bus2=0x008e6fb0.1.2.3 Units=km Length=0.0491553 Rmatrix=[ 1.88101666667     0.752406666666     0.752406666667| 0.752406666666      1.88101666667     0.752406666667| 0.752406666667     0.752406666667      1.88101666667|] Xmatrix=[0.563213333333     0.225283333333     0.225283333333| 0.225283333333     0.563213333333     0.225283333333| 0.225283333333     0.225283333333     0.563213333334|] Cmatrix=[0                  0                  0| 0                  0                  0| 0                  0                  0|]
New Line.0x0089bc00_0x008efb78 Phases=3 bus1=0x0089bc00.1.2.3 bus2=0x008efb78.1.2.3 Units=km Length=0.026569 Rmatrix=[ 0.191383333333    0.0765533333334    0.0765533333333| 0.0765533333334     0.191383333333    0.0765533333333| 0.0765533333333    0.0765533333333     0.191383333333|] Xmatrix=[ 0.191383333333    0.0765533333334    0.0765533333334| 0.0765533333334     0.191383333333    0.0765533333333| 0.0765533333334    0.0765533333333     0.191383333333|] Cmatrix=[0                  0                  0| 0                  0                  0| 0                  0                  0|]
New Line.0x0089caf8_0x008f11d8 Phases=3 bus1=0x0089caf8.1.2.3 bus2=0x008f11d8.1.2.3 Units=km Length=0.019049 Rmatrix=[ 0.191383333333    0.0765533333333    0.0765533333333| 0.0765533333333     0.191383333333    0.0765533333333| 0.0765533333333    0.0765533333333     0.191383333333|] Xmatrix=[ 0.191383333333    0.0765533333334    0.0765533333333| 0.0765533333334     0.191383333333    0.0765533333334| 0.0765533333333    0.0765533333334     0.191383333333|] Cmatrix=[0                  0                  0| 0                  0                  0| 0                  0                  0|]
New Line.0x0089d548_0x008e9580 Phases=3 bus1=0x0089d548.1.2.3 bus2=0x008e9580.1.2.3 Units=km Length=0.0183513 Rmatrix=[0.39753            0.15901            0.15901| 0.15901            0.39753            0.15901| 0.15901            0.15901            0.39753|] Xmatrix=[0.621503333334     0.248603333334     0.248603333334| 0.248603333334     0.621503333333     0.248603333333| 0.248603333334     0.248603333333     0.621503333333|] Cmatrix=[0                  0                  0| 0                  0                  0| 0                  0                  0|]
New Line.0x008e9580_0x008b8108 Phases=3 bus1=0x008e9580.1.2.3 bus2=0x008b8108.1.2.3 Units=km Length=0.012073 Rmatrix=[0.39753            0.15901            0.15901| 0.15901            0.39753            0.15901| 0.15901            0.15901            0.39753|] Xmatrix=[0.621503333333     0.248603333333     0.248603333333| 0.248603333333     0.621503333333     0.248603333333| 0.248603333333     0.248603333333     0.621503333333|] Cmatrix=[0                  0                  0| 0                  0                  0| 0                  0                  0|]
New Line.0x008e9580_0x008edff8 Phases=3 bus1=0x008e9580.1.2.3 bus2=0x008edff8.1.2.3 Units=km Length=0.0208809 Rmatrix=[0.39753            0.15901            0.15901| 0.15901            0.39753            0.15901| 0.15901            0.15901            0.39753|] Xmatrix=[0.621503333333     0.248603333333     0.248603333333| 0.248603333333     0.621503333333     0.248603333333| 0.248603333333     0.248603333333     0.621503333333|] Cmatrix=[0                  0                  0| 0                  0                  0| 0                  0                  0|]
New Line.0x0089da70_0x0089e678 Phases=3 bus1=0x0089da70.1.2.3 bus2=0x0089e678.1.2.3 Units=km Length=0.0710081 Rmatrix=[0.579616666667     0.231846666667     0.231846666667| 0.231846666667     0.579616666667     0.231846666667| 0.231846666667     0.231846666667     0.579616666667|] Xmatrix=[ 0.224186666667    0.0896766666666    0.0896766666666| 0.0896766666666     0.224186666667    0.0896766666666| 0.0896766666666    0.0896766666666     0.224186666667|] Cmatrix=[0                  0                  0| 0                  0                  0| 0                  0                  0|]
New Line.0x0089e308_0x008c63c0 Phases=3 bus1=0x0089e308.1.2.3 bus2=0x008c63c0.1.2.3 Units=km Length=0.019049 Rmatrix=[ 0.191383333333    0.0765533333333    0.0765533333333| 0.0765533333333     0.191383333333    0.0765533333334| 0.0765533333333    0.0765533333334     0.191383333333|] Xmatrix=[ 0.191383333333    0.0765533333333    0.0765533333333| 0.0765533333333     0.191383333333    0.0765533333334| 0.0765533333333    0.0765533333334     0.191383333333|] Cmatrix=[0                  0                  0| 0                  0                  0| 0                  0                  0|]
New Line.0x0089e9e8_0x008f0780 Phases=3 bus1=0x0089e9e8.1.2.3 bus2=0x008f0780.1.2.3 Units=km Length=0.019049 Rmatrix=[ 0.191383333333    0.0765533333333    0.0765533333333| 0.0765533333333     0.191383333333    0.0765533333333| 0.0765533333333    0.0765533333333     0.191383333333|] Xmatrix=[ 0.191383333334    0.0765533333334    0.0765533333334| 0.0765533333334     0.191383333333    0.0765533333334| 0.0765533333334    0.0765533333334     0.191383333333|] Cmatrix=[0                  0                  0| 0                  0                  0| 0                  0                  0|]
New Line.0x0089ef10_0x008b8ec8 Phases=3 bus1=0x0089ef10.1.2.3 bus2=0x008b8ec8.1.2.3 Units=km Length=0.199257 Rmatrix=[0.371829999993     0.148730000001     0.148729999992| 0.148730000001     0.371830000006     0.148729999992| 0.148729999992     0.148729999992     0.371829999985|] Xmatrix=[0.366363333334      0.14654333333     0.146543333334|  0.14654333333     0.366363333322     0.146543333336| 0.146543333334     0.146543333336     0.366363333339|] Cmatrix=[0                  0                  0| 0                  0                  0| 0                  0                  0|]
New Line.0x0089ef10_0x008e3f90 Phases=3 bus1=0x0089ef10.1.2.3 bus2=0x008e3f90.1.2.3 Units=km Length=0.00486297 Rmatrix=[0.37183            0.14873            0.14873| 0.14873            0.37183            0.14873| 0.14873            0.14873            0.37183|] Xmatrix=[0.366363333333     0.146543333333     0.146543333333| 0.146543333333     0.366363333333     0.146543333333| 0.146543333333     0.146543333333     0.366363333333|] Cmatrix=[0                  0                  0| 0                  0                  0| 0                  0                  0|]
New Line.0x008b8ec8_0x008c2800 Phases=3 bus1=0x008b8ec8.1.2.3 bus2=0x008c2800.1.2.3 Units=km Length=0.001 Rmatrix=[1                  0                  0| 0                  1                  0| 0                  0                  1|] Xmatrix=[1                  0                  0| 0                  1                  0| 0                  0                  1|] Cmatrix=[0                  0                  0| 0                  0                  0| 0                  0                  0|]
New Line.0x008ca1a0_0x008d7a58 Phases=3 bus1=0x008ca1a0.1.2.3 bus2=0x008d7a58.1.2.3 Units=km Length=0.0139571 Rmatrix=[0.14217            0.05687            0.05687| 0.05687            0.14217            0.05687| 0.05687            0.05687            0.14217|] Xmatrix=[ 0.185916666667    0.0743666666667    0.0743666666667| 0.0743666666667     0.185916666667    0.0743666666667| 0.0743666666667    0.0743666666667     0.185916666667|] Cmatrix=[0                  0                  0| 0                  0                  0| 0                  0                  0|]
New Line.0x008e61f0_0x008d65b8 Phases=3 bus1=0x008e61f0.1.2.3 bus2=0x008d65b8.1.2.3 Units=km Length=0.294178 Rmatrix=[0.14217            0.05687            0.05687| 0.05687            0.14217            0.05687| 0.05687            0.05687            0.14217|] Xmatrix=[ 0.185916666667    0.0743666666667    0.0743666666667| 0.0743666666667     0.185916666667    0.0743666666667| 0.0743666666667    0.0743666666667     0.185916666667|] Cmatrix=[0                  0                  0| 0                  0                  0| 0                  0                  0|]
New Line.0x0089f5f0_0x0089ed58 Phases=3 bus1=0x0089f5f0.1.2.3 bus2=0x0089ed58.1.2.3 Units=km Length=0.01818 Rmatrix=[ 0.191383333333    0.0765533333333    0.0765533333333| 0.0765533333333     0.191383333333    0.0765533333334| 0.0765533333333    0.0765533333334     0.191383333333|] Xmatrix=[ 0.191383333333    0.0765533333333    0.0765533333333| 0.0765533333333     0.191383333333    0.0765533333333| 0.0765533333333    0.0765533333333     0.191383333333|] Cmatrix=[0                  0                  0| 0                  0                  0| 0                  0                  0|]
New Line.0x0089f960_0x008f0410 Phases=3 bus1=0x0089f960.1.2.3 bus2=0x008f0410.1.2.3 Units=km Length=0.024384 Rmatrix=[ 0.191383333333    0.0765533333333    0.0765533333333| 0.0765533333333     0.191383333333    0.0765533333333| 0.0765533333333    0.0765533333333     0.191383333333|] Xmatrix=[ 0.191383333333    0.0765533333333    0.0765533333333| 0.0765533333333     0.191383333333    0.0765533333333| 0.0765533333333    0.0765533333333     0.191383333333|] Cmatrix=[0                  0                  0| 0                  0                  0| 0                  0                  0|]
New Line.0x008f0410_0x008f1f98 Phases=3 bus1=0x008f0410.1.2.3 bus2=0x008f1f98.1.2.3 Units=km Length=0.006857 Rmatrix=[ 0.191383333333    0.0765533333333    0.0765533333333| 0.0765533333333     0.191383333333    0.0765533333333| 0.0765533333333    0.0765533333333     0.191383333333|] Xmatrix=[ 0.191383333333    0.0765533333334    0.0765533333333| 0.0765533333334     0.191383333333    0.0765533333333| 0.0765533333333    0.0765533333333     0.191383333333|] Cmatrix=[0                  0                  0| 0                  0                  0| 0                  0                  0|]
New Line.0x008f0410_0x008f29e8 Phases=3 bus1=0x008f0410.1.2.3 bus2=0x008f29e8.1.2.3 Units=km Length=0.023896 Rmatrix=[ 0.191383333333    0.0765533333334    0.0765533333333| 0.0765533333334     0.191383333333    0.0765533333334| 0.0765533333333    0.0765533333334     0.191383333333|] Xmatrix=[ 0.191383333333    0.0765533333334    0.0765533333334| 0.0765533333334     0.191383333333    0.0765533333333| 0.0765533333334    0.0765533333333     0.191383333334|] Cmatrix=[0                  0                  0| 0                  0                  0| 0                  0                  0|]
New Line.0x0089fb18_0x008e9fd0 Phases=3 bus1=0x0089fb18.1.2.3 bus2=0x008e9fd0.1.2.3 Units=km Length=0.007711 Rmatrix=[0.37183            0.14873            0.14873| 0.14873            0.37183            0.14873| 0.14873            0.14873            0.37183|] Xmatrix=[0.366363333333     0.146543333333     0.146543333333| 0.146543333333     0.366363333333     0.146543333333| 0.146543333333     0.146543333333     0.366363333333|] Cmatrix=[0                  0                  0| 0                  0                  0| 0                  0                  0|]
New Line.0x008e9fd0_0x008d2988 Phases=3 bus1=0x008e9fd0.1.2.3 bus2=0x008d2988.1.2.3 Units=km Length=0.0101754 Rmatrix=[ 1.88101666666     0.752406666667     0.752406666666| 0.752406666667      1.88101666667     0.752406666667| 0.752406666666     0.752406666667      1.88101666667|] Xmatrix=[0.563213333331     0.225283333333     0.225283333333| 0.225283333333     0.563213333333     0.225283333333| 0.225283333333     0.225283333333     0.563213333333|] Cmatrix=[0                  0                  0| 0                  0                  0| 0                  0                  0|]
New Line.0x008e9fd0_0x008df358 Phases=3 bus1=0x008e9fd0.1.2.3 bus2=0x008df358.1.2.3 Units=km Length=0.0359083 Rmatrix=[ 0.191383333333    0.0765533333333    0.0765533333333| 0.0765533333333     0.191383333333    0.0765533333333| 0.0765533333333    0.0765533333333     0.191383333333|] Xmatrix=[ 0.191383333333    0.0765533333334    0.0765533333334| 0.0765533333334     0.191383333333    0.0765533333334| 0.0765533333334    0.0765533333334     0.191383333334|] Cmatrix=[0                  0                  0| 0                  0                  0| 0                  0                  0|]
New Line.0x008e9fd0_0x008edf60 Phases=3 bus1=0x008e9fd0.1.2.3 bus2=0x008edf60.1.2.3 Units=km Length=0.129384 Rmatrix=[0.37183            0.14873            0.14873| 0.14873     0.371830000001            0.14873| 0.14873            0.14873     0.371829999999|] Xmatrix=[0.366363333335     0.146543333333     0.146543333333| 0.146543333333     0.366363333332     0.146543333333| 0.146543333333     0.146543333333     0.366363333336|] Cmatrix=[0                  0                  0| 0                  0                  0| 0                  0                  0|]
New Line.0x0089fe88_0x008f0af0 Phases=3 bus1=0x0089fe88.1.2.3 bus2=0x008f0af0.1.2.3 Units=km Length=0.019049 Rmatrix=[ 0.191383333333    0.0765533333333    0.0765533333333| 0.0765533333333     0.191383333333    0.0765533333333| 0.0765533333333    0.0765533333333     0.191383333333|] Xmatrix=[ 0.191383333333    0.0765533333333    0.0765533333333| 0.0765533333333     0.191383333333    0.0765533333333| 0.0765533333333    0.0765533333333     0.191383333333|] Cmatrix=[0                  0                  0| 0                  0                  0| 0                  0                  0|]
New Line.0x008b8108_0x008d71c0 Phases=3 bus1=0x008b8108.1.2.3 bus2=0x008d71c0.1.2.3 Units=km Length=0.0601142 Rmatrix=[0.39753            0.15901            0.15901| 0.15901            0.39753            0.15901| 0.15901            0.15901            0.39753|] Xmatrix=[0.621503333333     0.248603333333     0.248603333333| 0.248603333333     0.621503333333     0.248603333333| 0.248603333333     0.248603333333     0.621503333333|] Cmatrix=[0                  0                  0| 0                  0                  0| 0                  0                  0|]
New Line.0x008b82c0_0x008f0258 Phases=3 bus1=0x008b82c0.1.2.3 bus2=0x008f0258.1.2.3 Units=km Length=0.006857 Rmatrix=[ 0.191383333333    0.0765533333333    0.0765533333333| 0.0765533333333     0.191383333333    0.0765533333333| 0.0765533333333    0.0765533333333     0.191383333333|] Xmatrix=[ 0.191383333333    0.0765533333333    0.0765533333333| 0.0765533333333     0.191383333333    0.0765533333333| 0.0765533333333    0.0765533333333     0.191383333334|] Cmatrix=[0                  0                  0| 0                  0                  0| 0                  0                  0|]
New Line.0x008b82c0_0x008f2150 Phases=3 bus1=0x008b82c0.1.2.3 bus2=0x008f2150.1.2.3 Units=km Length=0.024384 Rmatrix=[ 0.191383333333    0.0765533333333    0.0765533333333| 0.0765533333333     0.191383333333    0.0765533333333| 0.0765533333333    0.0765533333333     0.191383333333|] Xmatrix=[ 0.191383333333    0.0765533333333    0.0765533333333| 0.0765533333333     0.191383333333    0.0765533333334| 0.0765533333333    0.0765533333334     0.191383333333|] Cmatrix=[0                  0                  0| 0                  0                  0| 0                  0                  0|]
New Line.0x008f0258_0x008c9fe8 Phases=3 bus1=0x008f0258.1.2.3 bus2=0x008c9fe8.1.2.3 Units=km Length=0.027433 Rmatrix=[ 0.191383333333    0.0765533333333    0.0765533333332| 0.0765533333333     0.191383333333    0.0765533333332| 0.0765533333332    0.0765533333332     0.191383333333|] Xmatrix=[ 0.191383333334    0.0765533333328    0.0765533333335| 0.0765533333328     0.191383333332    0.0765533333334| 0.0765533333335    0.0765533333334     0.191383333333|] Cmatrix=[0                  0                  0| 0                  0                  0| 0                  0                  0|]
New Line.0x008f0258_0x008ca880 Phases=3 bus1=0x008f0258.1.2.3 bus2=0x008ca880.1.2.3 Units=km Length=0.027432 Rmatrix=[ 0.191383333333    0.0765533333335    0.0765533333333| 0.0765533333335     0.191383333334    0.0765533333333| 0.0765533333333    0.0765533333333     0.191383333333|] Xmatrix=[ 0.191383333333    0.0765533333334    0.0765533333334| 0.0765533333334     0.191383333334    0.0765533333333| 0.0765533333334    0.0765533333333     0.191383333333|] Cmatrix=[0                  0                  0| 0                  0                  0| 0                  0                  0|]
New Line.0x008f2150_0x008ed880 Phases=3 bus1=0x008f2150.1.2.3 bus2=0x008ed880.1.2.3 Units=km Length=0.0294492 Rmatrix=[0.579616666667     0.231846666667     0.231846666667| 0.231846666667     0.579616666667     0.231846666667| 0.231846666667     0.231846666667     0.579616666667|] Xmatrix=[ 0.224186666667    0.0896766666667    0.0896766666667| 0.0896766666667     0.224186666667    0.0896766666667| 0.0896766666667    0.0896766666667     0.224186666667|] Cmatrix=[0                  0                  0| 0                  0                  0| 0                  0                  0|]
New Line.0x008b8630_0x008e9738 Phases=3 bus1=0x008b8630.1.2.3 bus2=0x008e9738.1.2.3 Units=km Length=0.006858 Rmatrix=[ 0.191383333333    0.0765533333333    0.0765533333333| 0.0765533333333     0.191383333333    0.0765533333334| 0.0765533333333    0.0765533333334     0.191383333333|] Xmatrix=[ 0.191383333333    0.0765533333333    0.0765533333333| 0.0765533333333     0.191383333333    0.0765533333333| 0.0765533333333    0.0765533333333     0.191383333333|] Cmatrix=[0                  0                  0| 0                  0                  0| 0                  0                  0|]
New Line.0x008b8630_0x008ed6c8 Phases=3 bus1=0x008b8630.1.2.3 bus2=0x008ed6c8.1.2.3 Units=km Length=0.0196971 Rmatrix=[ 0.191383333333    0.0765533333333    0.0765533333333| 0.0765533333333     0.191383333333    0.0765533333333| 0.0765533333333    0.0765533333333     0.191383333333|] Xmatrix=[ 0.191383333333    0.0765533333333    0.0765533333333| 0.0765533333333     0.191383333333    0.0765533333333| 0.0765533333333    0.0765533333333     0.191383333333|] Cmatrix=[0                  0                  0| 0                  0                  0| 0                  0                  0|]
New Line.0x008e9738_0x008c6730 Phases=3 bus1=0x008e9738.1.2.3 bus2=0x008c6730.1.2.3 Units=km Length=0.027432 Rmatrix=[ 0.191383333333    0.0765533333333    0.0765533333334| 0.0765533333333     0.191383333333    0.0765533333334| 0.0765533333334    0.0765533333334     0.191383333333|] Xmatrix=[ 0.191383333334    0.0765533333333    0.0765533333336| 0.0765533333333     0.191383333333    0.0765533333336| 0.0765533333336    0.0765533333336     0.191383333334|] Cmatrix=[0                  0                  0| 0                  0                  0| 0                  0                  0|]
New Line.0x008e9738_0x008c74f0 Phases=3 bus1=0x008e9738.1.2.3 bus2=0x008c74f0.1.2.3 Units=km Length=0.027432 Rmatrix=[ 0.191383333333    0.0765533333333    0.0765533333333| 0.0765533333333     0.191383333333    0.0765533333333| 0.0765533333333    0.0765533333333     0.191383333333|] Xmatrix=[ 0.191383333333    0.0765533333331    0.0765533333333| 0.0765533333331     0.191383333333    0.0765533333334| 0.0765533333333    0.0765533333334     0.191383333333|] Cmatrix=[0                  0                  0| 0                  0                  0| 0                  0                  0|]
New Line.0x008ed6c8_0x008c38c8 Phases=3 bus1=0x008ed6c8.1.2.3 bus2=0x008c38c8.1.2.3 Units=km Length=0.036703 Rmatrix=[0.37183            0.14873            0.14873| 0.14873     0.371830000001            0.14873| 0.14873            0.14873     0.371830000001|] Xmatrix=[0.366363333334     0.146543333334     0.146543333333| 0.146543333334     0.366363333334     0.146543333333| 0.146543333333     0.146543333333     0.366363333333|] Cmatrix=[0                  0                  0| 0                  0                  0| 0                  0                  0|]
New Line.0x008b89a0_0x008d3fe8 Phases=3 bus1=0x008b89a0.1.2.3 bus2=0x008d3fe8.1.2.3 Units=km Length=0.243592 Rmatrix=[0.371829999996     0.148729999998     0.148729999998| 0.148729999998     0.371829999993     0.148729999996| 0.148729999998     0.148729999996     0.371830000006|] Xmatrix=[0.366363333339     0.146543333338     0.146543333337| 0.146543333338     0.366363333333     0.146543333334| 0.146543333337     0.146543333334     0.366363333328|] Cmatrix=[0                  0                  0| 0                  0                  0| 0                  0                  0|]
New Line.0x008d3fe8_0x008c9598 Phases=3 bus1=0x008d3fe8.1.2.3 bus2=0x008c9598.1.2.3 Units=km Length=0.024384 Rmatrix=[ 0.191383333333    0.0765533333333    0.0765533333333| 0.0765533333333     0.191383333333    0.0765533333333| 0.0765533333333    0.0765533333333     0.191383333333|] Xmatrix=[ 0.191383333333    0.0765533333333    0.0765533333333| 0.0765533333333     0.191383333333    0.0765533333333| 0.0765533333333    0.0765533333333     0.191383333333|] Cmatrix=[0                  0                  0| 0                  0                  0| 0                  0                  0|]
New Line.0x008d3fe8_0x008e4670 Phases=3 bus1=0x008d3fe8.1.2.3 bus2=0x008e4670.1.2.3 Units=km Length=0.00457566 Rmatrix=[0.37183            0.14873            0.14873| 0.14873            0.37183            0.14873| 0.14873            0.14873            0.37183|] Xmatrix=[0.366363333333     0.146543333333     0.146543333333| 0.146543333333     0.366363333333     0.146543333333| 0.146543333333     0.146543333333     0.366363333333|] Cmatrix=[0                  0                  0| 0                  0                  0| 0                  0                  0|]
New Line.0x008b8b58_0x008d52d0 Phases=3 bus1=0x008b8b58.1.2.3 bus2=0x008d52d0.1.2.3 Units=km Length=0.006889 Rmatrix=[ 0.191383333331    0.0765533333326    0.0765533333336| 0.0765533333326     0.191383333333    0.0765533333334| 0.0765533333336    0.0765533333334     0.191383333334|] Xmatrix=[ 0.191383333333    0.0765533333333    0.0765533333328| 0.0765533333333     0.191383333335    0.0765533333342| 0.0765533333328    0.0765533333342     0.191383333337|] Cmatrix=[0                  0                  0| 0                  0                  0| 0                  0                  0|]
New Line.0x008b8b58_0x008e1c98 Phases=3 bus1=0x008b8b58.1.2.3 bus2=0x008e1c98.1.2.3 Units=km Length=0.024108 Rmatrix=[ 0.191383333335    0.0765533333327    0.0765533333308| 0.0765533333327     0.191383333329    0.0765533333283| 0.0765533333308    0.0765533333283     0.191383333341|] Xmatrix=[  0.19138333333    0.0765533333343    0.0765533333305| 0.0765533333343     0.191383333329    0.0765533333339| 0.0765533333305    0.0765533333339     0.191383333335|] Cmatrix=[0                  0                  0| 0                  0                  0| 0                  0                  0|]
New Line.0x008b8b58_0x008e63a8 Phases=3 bus1=0x008b8b58.1.2.3 bus2=0x008e63a8.1.2.3 Units=km Length=0.000245 Rmatrix=[  0.19138333333    0.0765533333332    0.0765533333338| 0.0765533333332     0.191383333332    0.0765533333328| 0.0765533333338    0.0765533333328     0.191383333334|] Xmatrix=[ 0.191383333337    0.0765533333336    0.0765533333332| 0.0765533333336     0.191383333333    0.0765533333343| 0.0765533333332    0.0765533333343     0.191383333334|] Cmatrix=[0                  0                  0| 0                  0                  0| 0                  0                  0|]
New Line.0x008d52d0_0x008c5e98 Phases=3 bus1=0x008d52d0.1.2.3 bus2=0x008c5e98.1.2.3 Units=km Length=0.026505 Rmatrix=[ 0.191383333333    0.0765533333332    0.0765533333337| 0.0765533333332     0.191383333333    0.0765533333337| 0.0765533333337    0.0765533333337     0.191383333334|] Xmatrix=[ 0.191383333333    0.0765533333336    0.0765533333332| 0.0765533333336     0.191383333335    0.0765533333332| 0.0765533333332    0.0765533333332     0.191383333333|] Cmatrix=[0                  0                  0| 0                  0                  0| 0                  0                  0|]
New Line.0x008d52d0_0x008e5430 Phases=3 bus1=0x008d52d0.1.2.3 bus2=0x008e5430.1.2.3 Units=km Length=0.026507 Rmatrix=[ 0.191383333333    0.0765533333332    0.0765533333331| 0.0765533333332     0.191383333333    0.0765533333331| 0.0765533333331    0.0765533333331     0.191383333333|] Xmatrix=[ 0.191383333333    0.0765533333332    0.0765533333335| 0.0765533333332     0.191383333333    0.0765533333337| 0.0765533333335    0.0765533333337     0.191383333334|] Cmatrix=[0                  0                  0| 0                  0                  0| 0                  0                  0|]
New Line.0x008e1c98_0x008e3a68 Phases=3 bus1=0x008e1c98.1.2.3 bus2=0x008e3a68.1.2.3 Units=km Length=0.006889 Rmatrix=[ 0.191383333333    0.0765533333333    0.0765533333334| 0.0765533333333     0.191383333333    0.0765533333333| 0.0765533333334    0.0765533333333     0.191383333333|] Xmatrix=[ 0.191383333333    0.0765533333333    0.0765533333333| 0.0765533333333     0.191383333333    0.0765533333334| 0.0765533333333    0.0765533333334     0.191383333333|] Cmatrix=[0                  0                  0| 0                  0                  0| 0                  0                  0|]
New Line.0x008e1c98_0x008ee1b0 Phases=3 bus1=0x008e1c98.1.2.3 bus2=0x008ee1b0.1.2.3 Units=km Length=0.024384 Rmatrix=[ 0.191383333333    0.0765533333333    0.0765533333333| 0.0765533333333     0.191383333333    0.0765533333333| 0.0765533333333    0.0765533333333     0.191383333333|] Xmatrix=[ 0.191383333334    0.0765533333333    0.0765533333333| 0.0765533333333     0.191383333333    0.0765533333333| 0.0765533333333    0.0765533333333     0.191383333333|] Cmatrix=[0                  0                  0| 0                  0                  0| 0                  0                  0|]
New Line.0x008e63a8_0x008e55e8 Phases=3 bus1=0x008e63a8.1.2.3 bus2=0x008e55e8.1.2.3 Units=km Length=0.033148 Rmatrix=[ 0.191383333333    0.0765533333334    0.0765533333343| 0.0765533333334     0.191383333337    0.0765533333329| 0.0765533333343    0.0765533333329     0.191383333334|] Xmatrix=[  0.19138333335    0.0765533333333    0.0765533333328| 0.0765533333333      0.19138333333    0.0765533333342| 0.0765533333328    0.0765533333342     0.191383333346|] Cmatrix=[0                  0                  0| 0                  0                  0| 0                  0                  0|]
New Line.0x008c2800_0x008c87d8 Phases=3 bus1=0x008c2800.1.2.3 bus2=0x008c87d8.1.2.3 Units=km Length=0.0395087 Rmatrix=[0.371830000001     0.148730000001            0.14873| 0.148730000001     0.371830000001            0.14873|        0.14873            0.14873     0.371829999998|] Xmatrix=[0.366363333338     0.146543333335     0.146543333335| 0.146543333335     0.366363333335     0.146543333335| 0.146543333335     0.146543333335     0.366363333333|] Cmatrix=[0                  0                  0| 0                  0                  0| 0                  0                  0|]
New Line.0x008c87d8_0x008dd2a8 Phases=3 bus1=0x008c87d8.1.2.3 bus2=0x008dd2a8.1.2.3 Units=km Length=0.00482014 Rmatrix=[0.37183            0.14873            0.14873| 0.14873            0.37183            0.14873| 0.14873            0.14873            0.37183|] Xmatrix=[0.366363333333     0.146543333333     0.146543333333| 0.146543333333     0.366363333333     0.146543333333| 0.146543333333     0.146543333333     0.366363333333|] Cmatrix=[0                  0                  0| 0                  0                  0| 0                  0                  0|]
New Line.0x008c87d8_0x008f1de0 Phases=3 bus1=0x008c87d8.1.2.3 bus2=0x008f1de0.1.2.3 Units=km Length=0.024384 Rmatrix=[ 0.191383333333    0.0765533333333    0.0765533333333| 0.0765533333333     0.191383333333    0.0765533333335| 0.0765533333333    0.0765533333335     0.191383333333|] Xmatrix=[ 0.191383333333    0.0765533333332    0.0765533333333| 0.0765533333332     0.191383333333    0.0765533333335| 0.0765533333333    0.0765533333335     0.191383333333|] Cmatrix=[0                  0                  0| 0                  0                  0| 0                  0                  0|]
New Line.0x008c31e8_0x008cf420 Phases=3 bus1=0x008c31e8.1.2.3 bus2=0x008cf420.1.2.3 Units=km Length=0.01818 Rmatrix=[ 0.191383333333    0.0765533333333    0.0765533333333| 0.0765533333333     0.191383333333    0.0765533333333| 0.0765533333333    0.0765533333333     0.191383333333|] Xmatrix=[ 0.191383333333    0.0765533333334    0.0765533333334| 0.0765533333334     0.191383333333    0.0765533333334| 0.0765533333334    0.0765533333334     0.191383333333|] Cmatrix=[0                  0                  0| 0                  0                  0| 0                  0                  0|]
New Line.0x008c3710_0x008cbd20 Phases=3 bus1=0x008c3710.1.2.3 bus2=0x008cbd20.1.2.3 Units=km Length=0.01818 Rmatrix=[ 0.191383333333    0.0765533333333    0.0765533333333| 0.0765533333333     0.191383333333    0.0765533333333| 0.0765533333333    0.0765533333333     0.191383333333|] Xmatrix=[ 0.191383333333    0.0765533333333    0.0765533333333| 0.0765533333333     0.191383333333    0.0765533333333| 0.0765533333333    0.0765533333333     0.191383333333|] Cmatrix=[0                  0                  0| 0                  0                  0| 0                  0                  0|]
New Line.0x008c3c38_0x008cd1c0 Phases=3 bus1=0x008c3c38.1.2.3 bus2=0x008cd1c0.1.2.3 Units=km Length=0.01818 Rmatrix=[ 0.191383333333    0.0765533333333    0.0765533333333| 0.0765533333333     0.191383333333    0.0765533333333| 0.0765533333333    0.0765533333333     0.191383333333|] Xmatrix=[ 0.191383333333    0.0765533333333    0.0765533333333| 0.0765533333333     0.191383333333    0.0765533333334| 0.0765533333333    0.0765533333334     0.191383333333|] Cmatrix=[0                  0                  0| 0                  0                  0| 0                  0                  0|]
New Line.0x008c3fa8_0x008da280 Phases=3 bus1=0x008c3fa8.1.2.3 bus2=0x008da280.1.2.3 Units=km Length=0.019049 Rmatrix=[ 0.191383333333    0.0765533333333    0.0765533333333| 0.0765533333333     0.191383333333    0.0765533333333| 0.0765533333333    0.0765533333333     0.191383333333|] Xmatrix=[ 0.191383333333    0.0765533333333    0.0765533333333| 0.0765533333333     0.191383333333    0.0765533333334| 0.0765533333333    0.0765533333334     0.191383333333|] Cmatrix=[0                  0                  0| 0                  0                  0| 0                  0                  0|]
New Line.0x008c4160_0x008f1a70 Phases=3 bus1=0x008c4160.1.2.3 bus2=0x008f1a70.1.2.3 Units=km Length=0.019049 Rmatrix=[ 0.191383333333    0.0765533333334    0.0765533333334| 0.0765533333334     0.191383333333    0.0765533333334| 0.0765533333334    0.0765533333334     0.191383333333|] Xmatrix=[ 0.191383333333    0.0765533333333    0.0765533333333| 0.0765533333333     0.191383333333    0.0765533333334| 0.0765533333333    0.0765533333334     0.191383333333|] Cmatrix=[0                  0                  0| 0                  0                  0| 0                  0                  0|]
New Line.0x008c57b8_0x008d0a78 Phases=3 bus1=0x008c57b8.1.2.3 bus2=0x008d0a78.1.2.3 Units=km Length=0.019202 Rmatrix=[ 0.191383333333    0.0765533333333    0.0765533333333| 0.0765533333333     0.191383333333    0.0765533333334| 0.0765533333333    0.0765533333334     0.191383333333|] Xmatrix=[ 0.191383333333    0.0765533333333    0.0765533333333| 0.0765533333333     0.191383333334    0.0765533333334| 0.0765533333333    0.0765533333334     0.191383333333|] Cmatrix=[0                  0                  0| 0                  0                  0| 0                  0                  0|]
New Line.0x008c6578_0x008c4318 Phases=3 bus1=0x008c6578.1.2.3 bus2=0x008c4318.1.2.3 Units=km Length=0.0289545 Rmatrix=[0.39753            0.15901            0.15901| 0.15901            0.39753            0.15901| 0.15901            0.15901            0.39753|] Xmatrix=[0.621503333333     0.248603333333     0.248603333333| 0.248603333333     0.621503333333     0.248603333333| 0.248603333333     0.248603333333     0.621503333333|] Cmatrix=[0                  0                  0| 0                  0                  0| 0                  0                  0|]
New Line.0x008c6c58_0x008e0640 Phases=3 bus1=0x008c6c58.1.2.3 bus2=0x008e0640.1.2.3 Units=km Length=0.018281 Rmatrix=[ 0.191383333333    0.0765533333333    0.0765533333333| 0.0765533333333     0.191383333333    0.0765533333333| 0.0765533333333    0.0765533333333     0.191383333333|] Xmatrix=[ 0.191383333333    0.0765533333333    0.0765533333333| 0.0765533333333     0.191383333333    0.0765533333333| 0.0765533333333    0.0765533333333     0.191383333333|] Cmatrix=[0                  0                  0| 0                  0                  0| 0                  0                  0|]
New Line.0x008c6e10_0x008f1390 Phases=3 bus1=0x008c6e10.1.2.3 bus2=0x008f1390.1.2.3 Units=km Length=0.019049 Rmatrix=[ 0.191383333333    0.0765533333333    0.0765533333333| 0.0765533333333     0.191383333333    0.0765533333333| 0.0765533333333    0.0765533333333     0.191383333333|] Xmatrix=[ 0.191383333333    0.0765533333333    0.0765533333334| 0.0765533333333     0.191383333333    0.0765533333333| 0.0765533333334    0.0765533333333     0.191383333333|] Cmatrix=[0                  0                  0| 0                  0                  0| 0                  0                  0|]
New Line.0x008c7180_0x008f2f10 Phases=3 bus1=0x008c7180.1.2.3 bus2=0x008f2f10.1.2.3 Units=km Length=0.027433 Rmatrix=[ 0.191383333333    0.0765533333333    0.0765533333333| 0.0765533333333     0.191383333333    0.0765533333333| 0.0765533333333    0.0765533333333     0.191383333333|] Xmatrix=[ 0.191383333333    0.0765533333333    0.0765533333333| 0.0765533333333     0.191383333333    0.0765533333333| 0.0765533333333    0.0765533333333     0.191383333333|] Cmatrix=[0                  0                  0| 0                  0                  0| 0                  0                  0|]
New Line.0x008c7180_0x008f30c8 Phases=3 bus1=0x008c7180.1.2.3 bus2=0x008f30c8.1.2.3 Units=km Length=0.027433 Rmatrix=[ 0.191383333333    0.0765533333335    0.0765533333334| 0.0765533333335     0.191383333334    0.0765533333334| 0.0765533333334    0.0765533333334     0.191383333333|] Xmatrix=[ 0.191383333333    0.0765533333333    0.0765533333336| 0.0765533333333     0.191383333333    0.0765533333335| 0.0765533333336    0.0765533333335     0.191383333334|] Cmatrix=[0                  0                  0| 0                  0                  0| 0                  0                  0|]
New Line.0x008f2f10_0x0089f5f0 Phases=3 bus1=0x008f2f10.1.2.3 bus2=0x0089f5f0.1.2.3 Units=km Length=0.001 Rmatrix=[1                  0                  0| 0                  1                  0| 0                  0                  1|] Xmatrix=[1                  0                  0| 0                  1                  0| 0                  0                  1|] Cmatrix=[0                  0                  0| 0                  0                  0| 0                  0                  0|]
New Line.0x008f30c8_0x008d3c78 Phases=3 bus1=0x008f30c8.1.2.3 bus2=0x008d3c78.1.2.3 Units=km Length=0.001 Rmatrix=[1                  0                  0| 0                  1                  0| 0                  0                  1|] Xmatrix=[1                  0                  0| 0                  1                  0| 0                  0                  1|] Cmatrix=[0                  0                  0| 0                  0                  0| 0                  0                  0|]
New Line.0x008c76a8_0x008df510 Phases=3 bus1=0x008c76a8.1.2.3 bus2=0x008df510.1.2.3 Units=km Length=0.0389029 Rmatrix=[ 1.60159666667     0.640636666667     0.640636666667| 0.640636666667      1.60159666667     0.640636666667| 0.640636666667     0.640636666667      1.60159666667|] Xmatrix=[0.73243            0.29297            0.29297| 0.29297            0.73243            0.29297| 0.29297            0.29297            0.73243|] Cmatrix=[0                  0                  0| 0                  0                  0| 0                  0                  0|]
New Line.0x008c82b0_0x008cda58 Phases=3 bus1=0x008c82b0.1.2.3 bus2=0x008cda58.1.2.3 Units=km Length=0.0169931 Rmatrix=[0.39753            0.15901            0.15901| 0.15901            0.39753            0.15901| 0.15901            0.15901            0.39753|] Xmatrix=[0.621503333333     0.248603333333     0.248603333333| 0.248603333333     0.621503333333     0.248603333333| 0.248603333333     0.248603333333     0.621503333334|] Cmatrix=[0                  0                  0| 0                  0                  0| 0                  0                  0|]
New Line.0x008c82b0_0x008d84a8 Phases=3 bus1=0x008c82b0.1.2.3 bus2=0x008d84a8.1.2.3 Units=km Length=0.006858 Rmatrix=[0.39753            0.15901            0.15901| 0.15901            0.39753            0.15901| 0.15901            0.15901            0.39753|] Xmatrix=[0.621503333333     0.248603333333     0.248603333333| 0.248603333333     0.621503333333     0.248603333333| 0.248603333333     0.248603333333     0.621503333333|] Cmatrix=[0                  0                  0| 0                  0                  0| 0                  0                  0|]
New Line.0x008cda58_0x008d59b0 Phases=3 bus1=0x008cda58.1.2.3 bus2=0x008d59b0.1.2.3 Units=km Length=0.014583 Rmatrix=[0.39753            0.15901            0.15901| 0.15901            0.39753            0.15901| 0.15901            0.15901            0.39753|] Xmatrix=[0.621503333333     0.248603333333     0.248603333333| 0.248603333333     0.621503333333     0.248603333333| 0.248603333333     0.248603333333     0.621503333333|] Cmatrix=[0                  0                  0| 0                  0                  0| 0                  0                  0|]
New Line.0x008cda58_0x008e57a0 Phases=3 bus1=0x008cda58.1.2.3 bus2=0x008e57a0.1.2.3 Units=km Length=0.0150603 Rmatrix=[0.39753            0.15901            0.15901| 0.15901            0.39753            0.15901| 0.15901            0.15901            0.39753|] Xmatrix=[0.621503333333     0.248603333333     0.248603333333| 0.248603333333     0.621503333333     0.248603333333| 0.248603333333     0.248603333333     0.621503333334|] Cmatrix=[0                  0                  0| 0                  0                  0| 0                  0                  0|]
New Line.0x008d84a8_0x008c2d28 Phases=3 bus1=0x008d84a8.1.2.3 bus2=0x008c2d28.1.2.3 Units=km Length=0.022098 Rmatrix=[0.39753            0.15901            0.15901| 0.15901            0.39753            0.15901| 0.15901            0.15901            0.39753|] Xmatrix=[0.621503333334     0.248603333333     0.248603333333| 0.248603333333     0.621503333333     0.248603333333| 0.248603333333     0.248603333333     0.621503333333|] Cmatrix=[0                  0                  0| 0                  0                  0| 0                  0                  0|]
New Line.0x008c8620_0x008d1178 Phases=3 bus1=0x008c8620.1.2.3 bus2=0x008d1178.1.2.3 Units=km Length=0.019202 Rmatrix=[ 0.191383333333    0.0765533333333    0.0765533333333| 0.0765533333333     0.191383333333    0.0765533333333| 0.0765533333333    0.0765533333333     0.191383333333|] Xmatrix=[ 0.191383333333    0.0765533333334    0.0765533333334| 0.0765533333334     0.191383333333    0.0765533333333| 0.0765533333334    0.0765533333333     0.191383333333|] Cmatrix=[0                  0                  0| 0                  0                  0| 0                  0                  0|]
New Line.0x008f1de0_0x008d2cf8 Phases=3 bus1=0x008f1de0.1.2.3 bus2=0x008d2cf8.1.2.3 Units=km Length=0.023896 Rmatrix=[ 0.191383333333    0.0765533333333    0.0765533333334| 0.0765533333333     0.191383333333    0.0765533333333| 0.0765533333334    0.0765533333333     0.191383333333|] Xmatrix=[ 0.191383333334    0.0765533333333    0.0765533333333| 0.0765533333333     0.191383333334    0.0765533333334| 0.0765533333333    0.0765533333334     0.191383333334|] Cmatrix=[0                  0                  0| 0                  0                  0| 0                  0                  0|]
New Line.0x008f1de0_0x008e5b10 Phases=3 bus1=0x008f1de0.1.2.3 bus2=0x008e5b10.1.2.3 Units=km Length=0.006857 Rmatrix=[ 0.191383333333    0.0765533333334    0.0765533333333| 0.0765533333334     0.191383333333    0.0765533333333| 0.0765533333333    0.0765533333333     0.191383333333|] Xmatrix=[ 0.191383333333    0.0765533333333    0.0765533333333| 0.0765533333333     0.191383333333    0.0765533333333| 0.0765533333333    0.0765533333333     0.191383333333|] Cmatrix=[0                  0                  0| 0                  0                  0| 0                  0                  0|]
New Line.0x008c8d00_0x008d27d0 Phases=3 bus1=0x008c8d00.1.2.3 bus2=0x008d27d0.1.2.3 Units=km Length=0.006857 Rmatrix=[ 0.191383333333    0.0765533333333    0.0765533333333| 0.0765533333333     0.191383333333    0.0765533333333| 0.0765533333333    0.0765533333333     0.191383333333|] Xmatrix=[ 0.191383333333    0.0765533333333    0.0765533333333| 0.0765533333333     0.191383333333    0.0765533333333| 0.0765533333333    0.0765533333333     0.191383333333|] Cmatrix=[0                  0                  0| 0                  0                  0| 0                  0                  0|]
New Line.0x008c8d00_0x008e4148 Phases=3 bus1=0x008c8d00.1.2.3 bus2=0x008e4148.1.2.3 Units=km Length=0.023896 Rmatrix=[ 0.191383333333    0.0765533333334    0.0765533333334| 0.0765533333334     0.191383333333    0.0765533333333| 0.0765533333334    0.0765533333333     0.191383333333|] Xmatrix=[ 0.191383333333    0.0765533333334    0.0765533333333| 0.0765533333334     0.191383333333    0.0765533333334| 0.0765533333333    0.0765533333334     0.191383333333|] Cmatrix=[0                  0                  0| 0                  0                  0| 0                  0                  0|]
New Line.0x008d27d0_0x008c6208 Phases=3 bus1=0x008d27d0.1.2.3 bus2=0x008c6208.1.2.3 Units=km Length=0.027433 Rmatrix=[ 0.191383333334    0.0765533333336    0.0765533333333| 0.0765533333336     0.191383333334    0.0765533333334| 0.0765533333333    0.0765533333334     0.191383333333|] Xmatrix=[ 0.191383333333    0.0765533333335    0.0765533333333| 0.0765533333335     0.191383333334    0.0765533333333| 0.0765533333333    0.0765533333333     0.191383333334|] Cmatrix=[0                  0                  0| 0                  0                  0| 0                  0                  0|]
New Line.0x008d27d0_0x008c9e30 Phases=3 bus1=0x008d27d0.1.2.3 bus2=0x008c9e30.1.2.3 Units=km Length=0.027433 Rmatrix=[ 0.191383333333    0.0765533333333    0.0765533333333| 0.0765533333333     0.191383333333    0.0765533333332| 0.0765533333333    0.0765533333332     0.191383333333|] Xmatrix=[ 0.191383333333    0.0765533333333    0.0765533333332| 0.0765533333333     0.191383333333    0.0765533333333| 0.0765533333332    0.0765533333333     0.191383333333|] Cmatrix=[0                  0                  0| 0                  0                  0| 0                  0                  0|]
[...]
New Load.Load_0X008E8B30_DROP_252_8.1_model_4 Phases=1 bus1=0X008E8B30_DROP_252_8.1 Kv=0.24 Kw=2.3984 Model=4 Kvar=1.0469
New Load.Load_0X008E8B30_DROP_252_9.1_model_4 Phases=1 bus1=0X008E8B30_DROP_252_9.1 Kv=0.24 Kw=2.3984 Model=4 Kvar=1.0469
New Load.Load_0X008E8B30_DROP_252_10.1_model_4 Phases=1 bus1=0X008E8B30_DROP_252_10.1 Kv=0.24 Kw=2.3984 Model=4 Kvar=1.0469
New Load.Load_0X008E8B30_DROP_252_11.1_model_4 Phases=1 bus1=0X008E8B30_DROP_252_11.1 Kv=0.24 Kw=2.3984 Model=4 Kvar=1.0469
New Load.Load_0X008E8B30_DROP_252_12.1_model_4 Phases=1 bus1=0X008E8B30_DROP_252_12.1 Kv=0.24 Kw=2.3984 Model=4 Kvar=1.0469
New Load.Load_0X008E8B30_DROP_253_1.1_model_4 Phases=1 bus1=0X008E8B30_DROP_253_1.1 Kv=0.24 Kw=3.7698 Model=4 Kvar=1.9025
New Load.Load_0X008E8B30_DROP_253_2.1_model_4 Phases=1 bus1=0X008E8B30_DROP_253_2.1 Kv=0.24 Kw=3.7698 Model=4 Kvar=1.9025
New Load.Load_0X008E8B30_DROP_253_3.1_model_4 Phases=1 bus1=0X008E8B30_DROP_253_3.1 Kv=0.24 Kw=3.7698 Model=4 Kvar=1.9025
New Load.Load_0X008E8CE8_DROP_254_1.1_model_4 Phases=1 bus1=0X008E8CE8_DROP_254_1.1 Kv=0.24 Kw=2.2625 Model=4 Kvar=1.0528
New Load.Load_0X008E8CE8_DROP_254_2.1_model_4 Phases=1 bus1=0X008E8CE8_DROP_254_2.1 Kv=0.24 Kw=2.2625 Model=4 Kvar=1.0528
New Load.Load_0X008E8CE8_DROP_254_3.1_model_4 Phases=1 bus1=0X008E8CE8_DROP_254_3.1 Kv=0.24 Kw=2.2625 Model=4 Kvar=1.0528
New Load.Load_0X008E8CE8_DROP_254_4.1_model_4 Phases=1 bus1=0X008E8CE8_DROP_254_4.1 Kv=0.24 Kw=2.2625 Model=4 Kvar=1.0528
New Load.Load_0X008E8CE8_DROP_254_5.1_model_4 Phases=1 bus1=0X008E8CE8_DROP_254_5.1 Kv=0.24 Kw=2.2625 Model=4 Kvar=1.0528
New Load.Load_0X008E8CE8_DROP_254_6.1_model_4 Phases=1 bus1=0X008E8CE8_DROP_254_6.1 Kv=0.24 Kw=2.2625 Model=4 Kvar=1.0528
New Load.Load_0X008E8CE8_DROP_254_7.1_model_4 Phases=1 bus1=0X008E8CE8_DROP_254_7.1 Kv=0.24 Kw=2.2625 Model=4 Kvar=1.0528
New Load.Load_0X008E8CE8_DROP_254_8.1_model_4 Phases=1 bus1=0X008E8CE8_DROP_254_8.1 Kv=0.24 Kw=2.2625 Model=4 Kvar=1.0528
New Load.Load_0X008E8CE8_DROP_254_9.1_model_4 Phases=1 bus1=0X008E8CE8_DROP_254_9.1 Kv=0.24 Kw=2.2625 Model=4 Kvar=1.0528
New Load.Load_0X008E8CE8_DROP_254_10.1_model_4 Phases=1 bus1=0X008E8CE8_DROP_254_10.1 Kv=0.24 Kw=2.2625 Model=4 Kvar=1.0528
New Load.Load_0X008E8CE8_DROP_254_11.1_model_4 Phases=1 bus1=0X008E8CE8_DROP_254_11.1 Kv=0.24 Kw=2.2625 Model=4 Kvar=1.0528
New Load.Load_0X008E8CE8_DROP_254_12.1_model_4 Phases=1 bus1=0X008E8CE8_DROP_254_12.1 Kv=0.24 Kw=2.2625 Model=4 Kvar=1.0528
New Load.Load_0X008E8CE8_DROP_255_1.1_model_4 Phases=1 bus1=0X008E8CE8_DROP_255_1.1 Kv=0.24 Kw=1.2199 Model=4 Kvar=0.2961
New Load.Load_0X008E93C8_DROP_256_1.1_model_4 Phases=1 bus1=0X008E93C8_DROP_256_1.1 Kv=0.24 Kw=2.1407 Model=4 Kvar=0.9876
New Load.Load_0X008E93C8_DROP_256_2.1_model_4 Phases=1 bus1=0X008E93C8_DROP_256_2.1 Kv=0.24 Kw=2.1407 Model=4 Kvar=0.9876
New Load.Load_0X008E93C8_DROP_256_3.1_model_4 Phases=1 bus1=0X008E93C8_DROP_256_3.1 Kv=0.24 Kw=2.1407 Model=4 Kvar=0.9876
New Load.Load_0X008E93C8_DROP_256_4.1_model_4 Phases=1 bus1=0X008E93C8_DROP_256_4.1 Kv=0.24 Kw=2.1407 Model=4 Kvar=0.9876
New Load.Load_0X008E93C8_DROP_256_5.1_model_4 Phases=1 bus1=0X008E93C8_DROP_256_5.1 Kv=0.24 Kw=2.1407 Model=4 Kvar=0.9876
New Load.Load_0X008E93C8_DROP_256_6.1_model_4 Phases=1 bus1=0X008E93C8_DROP_256_6.1 Kv=0.24 Kw=2.1407 Model=4 Kvar=0.9876
New Load.Load_0X008E93C8_DROP_256_7.1_model_4 Phases=1 bus1=0X008E93C8_DROP_256_7.1 Kv=0.24 Kw=2.1407 Model=4 Kvar=0.9876
New Load.Load_0X008E93C8_DROP_256_8.1_model_4 Phases=1 bus1=0X008E93C8_DROP_256_8.1 Kv=0.24 Kw=2.1407 Model=4 Kvar=0.9876
New Load.Load_0X008E93C8_DROP_256_9.1_model_4 Phases=1 bus1=0X008E93C8_DROP_256_9.1 Kv=0.24 Kw=2.1407 Model=4 Kvar=0.9876
New Load.Load_0X008E93C8_DROP_256_10.1_model_4 Phases=1 bus1=0X008E93C8_DROP_256_10.1 Kv=0.24 Kw=2.1407 Model=4 Kvar=0.9876
New Load.Load_0X008E93C8_DROP_257_1.1_model_4 Phases=1 bus1=0X008E93C8_DROP_257_1.1 Kv=0.24 Kw=2.2016 Model=4 Kvar=0.94198
New Load.Load_0X008E93C8_DROP_257_2.1_model_4 Phases=1 bus1=0X008E93C8_DROP_257_2.1 Kv=0.24 Kw=2.2016 Model=4 Kvar=0.94198
New Load.Load_0X008E9C60_DROP_258_1.2_model_4 Phases=1 bus1=0X008E9C60_DROP_258_1.2 Kv=0.24 Kw=5.3733 Model=4 Kvar=2.4467
New Load.Load_0X008E9C60_DROP_258_2.2_model_4 Phases=1 bus1=0X008E9C60_DROP_258_2.2 Kv=0.24 Kw=5.3733 Model=4 Kvar=2.4467
New Load.Load_0X008E9C60_DROP_258_3.2_model_4 Phases=1 bus1=0X008E9C60_DROP_258_3.2 Kv=0.24 Kw=5.3733 Model=4 Kvar=2.4467
New Load.Load_0X008E9E18_DROP_259_1.1_model_4 Phases=1 bus1=0X008E9E18_DROP_259_1.1 Kv=0.24 Kw=1.9531 Model=4 Kvar=0.89615
New Load.Load_0X008E9E18_DROP_259_2.1_model_4 Phases=1 bus1=0X008E9E18_DROP_259_2.1 Kv=0.24 Kw=1.9531 Model=4 Kvar=0.89615
New Load.Load_0X008E9E18_DROP_259_3.1_model_4 Phases=1 bus1=0X008E9E18_DROP_259_3.1 Kv=0.24 Kw=1.9531 Model=4 Kvar=0.89615
New Load.Load_0X008E9E18_DROP_259_4.1_model_4 Phases=1 bus1=0X008E9E18_DROP_259_4.1 Kv=0.24 Kw=1.9531 Model=4 Kvar=0.89615
New Load.Load_0X008E9E18_DROP_259_5.1_model_4 Phases=1 bus1=0X008E9E18_DROP_259_5.1 Kv=0.24 Kw=1.9531 Model=4 Kvar=0.89615
New Load.Load_0X008E9E18_DROP_259_6.1_model_4 Phases=1 bus1=0X008E9E18_DROP_259_6.1 Kv=0.24 Kw=1.9531 Model=4 Kvar=0.89615
New Load.Load_0X008E9E18_DROP_259_7.1_model_4 Phases=1 bus1=0X008E9E18_DROP_259_7.1 Kv=0.24 Kw=1.9531 Model=4 Kvar=0.89615
New Load.Load_0X008E9E18_DROP_259_8.1_model_4 Phases=1 bus1=0X008E9E18_DROP_259_8.1 Kv=0.24 Kw=1.9531 Model=4 Kvar=0.89615
New Load.Load_0X008E9E18_DROP_259_9.1_model_4 Phases=1 bus1=0X008E9E18_DROP_259_9.1 Kv=0.24 Kw=1.9531 Model=4 Kvar=0.89615
New Load.Load_0X008E9E18_DROP_259_10.1_model_4 Phases=1 bus1=0X008E9E18_DROP_259_10.1 Kv=0.24 Kw=1.9531 Model=4 Kvar=0.89615
New Load.Load_0X008E9E18_DROP_259_11.1_model_4 Phases=1 bus1=0X008E9E18_DROP_259_11.1 Kv=0.24 Kw=1.9531 Model=4 Kvar=0.89615
New Load.Load_0X008E9E18_DROP_260_1.1_model_4 Phases=1 bus1=0X008E9E18_DROP_260_1.1 Kv=0.24 Kw=0.94298 Model=4 Kvar=0.39618
New Load.Load_0X008E9E18_DROP_260_2.1_model_4 Phases=1 bus1=0X008E9E18_DROP_260_2.1 Kv=0.24 Kw=0.94298 Model=4 Kvar=0.39618
New Load.Load_0X008EA188_DROP_261_1.3_model_4 Phases=1 bus1=0X008EA188_DROP_261_1.3 Kv=0.24 Kw=2.165 Model=4 Kvar=0.98667
New Load.Load_0X008EA188_DROP_261_2.3_model_4 Phases=1 bus1=0X008EA188_DROP_261_2.3 Kv=0.24 Kw=2.165 Model=4 Kvar=0.98667
New Load.Load_0X008EA188_DROP_261_3.3_model_4 Phases=1 bus1=0X008EA188_DROP_261_3.3 Kv=0.24 Kw=2.165 Model=4 Kvar=0.98667
New Load.Load_0X008EA188_DROP_261_4.3_model_4 Phases=1 bus1=0X008EA188_DROP_261_4.3 Kv=0.24 Kw=2.165 Model=4 Kvar=0.98667
New Load.Load_0X008EA188_DROP_261_5.3_model_4 Phases=1 bus1=0X008EA188_DROP_261_5.3 Kv=0.24 Kw=2.165 Model=4 Kvar=0.98667
New Load.Load_0X008EA188_DROP_261_6.3_model_4 Phases=1 bus1=0X008EA188_DROP_261_6.3 Kv=0.24 Kw=2.165 Model=4 Kvar=0.98667
New Load.Load_0X008EAA20_DROP_262_1.3_model_4 Phases=1 bus1=0X008EAA20_DROP_262_1.3 Kv=0.24 Kw=3.1314 Model=4 Kvar=1.4264
New Load.Load_0X008EAA20_DROP_262_2.3_model_4 Phases=1 bus1=0X008EAA20_DROP_262_2.3 Kv=0.24 Kw=3.1314 Model=4 Kvar=1.4264
New Load.Load_0X008EAA20_DROP_262_3.3_model_4 Phases=1 bus1=0X008EAA20_DROP_262_3.3 Kv=0.24 Kw=3.1314 Model=4 Kvar=1.4264
New Load.Load_0X008EAA20_DROP_262_4.3_model_4 Phases=1 bus1=0X008EAA20_DROP_262_4.3 Kv=0.24 Kw=3.1314 Model=4 Kvar=1.4264
New Load.Load_0X008EAA20_DROP_262_5.3_model_4 Phases=1 bus1=0X008EAA20_DROP_262_5.3 Kv=0.24 Kw=3.1314 Model=4 Kvar=1.4264
New Load.Load_0X008EAA20_DROP_262_6.3_model_4 Phases=1 bus1=0X008EAA20_DROP_262_6.3 Kv=0.24 Kw=3.1314 Model=4 Kvar=1.4264
New Load.Load_0X008EAA20_DROP_262_7.3_model_4 Phases=1 bus1=0X008EAA20_DROP_262_7.3 Kv=0.24 Kw=3.1314 Model=4 Kvar=1.4264
New Load.Load_0X008EAA20_DROP_262_8.3_model_4 Phases=1 bus1=0X008EAA20_DROP_262_8.3 Kv=0.24 Kw=3.1314 Model=4 Kvar=1.4264
New Load.Load_0X008EAA20_DROP_262_9.3_model_4 Phases=1 bus1=0X008EAA20_DROP_262_9.3 Kv=0.24 Kw=3.1314 Model=4 Kvar=1.4264
New Load.Load_0X008EAA20_DROP_262_10.3_model_4 Phases=1 bus1=0X008EAA20_DROP_262_10.3 Kv=0.24 Kw=3.1314 Model=4 Kvar=1.4264
New Load.Load_0X008EAA20_DROP_262_11.3_model_4 Phases=1 bus1=0X008EAA20_DROP_262_11.3 Kv=0.24 Kw=3.1314 Model=4 Kvar=1.4264
New Load.Load_0X008EAA20_DROP_262_12.3_model_4 Phases=1 bus1=0X008EAA20_DROP_262_12.3 Kv=0.24 Kw=3.1314 Model=4 Kvar=1.4264
New Load.Load_0X008EAA20_DROP_262_13.3_model_4 Phases=1 bus1=0X008EAA20_DROP_262_13.3 Kv=0.24 Kw=3.1314 Model=4 Kvar=1.4264
New Load.Load_0X008EAA20_DROP_262_14.3_model_4 Phases=1 bus1=0X008EAA20_DROP_262_14.3 Kv=0.24 Kw=3.1314 Model=4 Kvar=1.4264
New Load.Load_0X008EB2B8_DROP_263_1.3_model_4 Phases=1 bus1=0X008EB2B8_DROP_263_1.3 Kv=0.24 Kw=4.8623 Model=4 Kvar=2.2392
New Load.Load_0X008EB2B8_DROP_263_2.3_model_4 Phases=1 bus1=0X008EB2B8_DROP_263_2.3 Kv=0.24 Kw=4.8623 Model=4 Kvar=2.2392
New Load.Load_0X008EB2B8_DROP_263_3.3_model_4 Phases=1 bus1=0X008EB2B8_DROP_263_3.3 Kv=0.24 Kw=4.8623 Model=4 Kvar=2.2392
New Load.Load_0X008EB2B8_DROP_264_1.3_model_4 Phases=1 bus1=0X008EB2B8_DROP_264_1.3 Kv=0.24 Kw=4.8131 Model=4 Kvar=2.1225
New Load.Load_0X008EB470_DROP_265_1.2_model_4 Phases=1 bus1=0X008EB470_DROP_265_1.2 Kv=0.24 Kw=4.2923 Model=4 Kvar=1.9826
New Load.Load_0X008EB470_DROP_265_2.2_model_4 Phases=1 bus1=0X008EB470_DROP_265_2.2 Kv=0.24 Kw=4.2923 Model=4 Kvar=1.9826
New Load.Load_0X008EB470_DROP_265_3.2_model_4 Phases=1 bus1=0X008EB470_DROP_265_3.2 Kv=0.24 Kw=4.2923 Model=4 Kvar=1.9826
New Load.Load_0X008EB470_DROP_265_4.2_model_4 Phases=1 bus1=0X008EB470_DROP_265_4.2 Kv=0.24 Kw=4.2923 Model=4 Kvar=1.9826
New Load.Load_0X008EB470_DROP_265_5.2_model_4 Phases=1 bus1=0X008EB470_DROP_265_5.2 Kv=0.24 Kw=4.2923 Model=4 Kvar=1.9826
New Load.Load_0X008EB470_DROP_266_1.2_model_4 Phases=1 bus1=0X008EB470_DROP_266_1.2 Kv=0.24 Kw=2.3961 Model=4 Kvar=1.0457
New Load.Load_0X008EB470_DROP_266_2.2_model_4 Phases=1 bus1=0X008EB470_DROP_266_2.2 Kv=0.24 Kw=2.3961 Model=4 Kvar=1.0457
New Load.Load_0X008EB470_DROP_266_3.2_model_4 Phases=1 bus1=0X008EB470_DROP_266_3.2 Kv=0.24 Kw=2.3961 Model=4 Kvar=1.0457
New Load.Load_0X008EB7E0_DROP_268_1.3_model_4 Phases=1 bus1=0X008EB7E0_DROP_268_1.3 Kv=0.24 Kw=3.9016 Model=4 Kvar=1.7025
New Load.Load_0X008EB7E0_DROP_268_2.3_model_4 Phases=1 bus1=0X008EB7E0_DROP_268_2.3 Kv=0.24 Kw=3.9016 Model=4 Kvar=1.7025
New Load.Load_0X008EB7E0_DROP_268_3.3_model_4 Phases=1 bus1=0X008EB7E0_DROP_268_3.3 Kv=0.24 Kw=3.9016 Model=4 Kvar=1.7025
New Load.Load_0X008EB7E0_DROP_268_4.3_model_4 Phases=1 bus1=0X008EB7E0_DROP_268_4.3 Kv=0.24 Kw=3.9016 Model=4 Kvar=1.7025
New Load.Load_0X008EB7E0_SND_1.3_model_4 Phases=1 bus1=0X008EB7E0_SND_1.3 Kv=0.24 Kw=3.9016 Model=4 Kvar=1.7025
New Load.Load_0X008EB7E0_DROP_268_5.3_model_4 Phases=1 bus1=0X008EB7E0_DROP_268_5.3 Kv=0.24 Kw=3.9016 Model=4 Kvar=1.7025
New Load.Load_0X008EB7E0_DROP_268_6.3_model_4 Phases=1 bus1=0X008EB7E0_DROP_268_6.3 Kv=0.24 Kw=3.9016 Model=4 Kvar=1.7025
New Load.Load_0X008EB7E0_DROP_268_8.3_model_4 Phases=1 bus1=0X008EB7E0_DROP_268_8.3 Kv=0.24 Kw=3.9016 Model=4 Kvar=1.7025
New Load.Load_0X008EB7E0_DROP_269_1.3_model_4 Phases=1 bus1=0X008EB7E0_DROP_269_1.3 Kv=0.24 Kw=5.6935 Model=4 Kvar=2.895
New Load.Load_0X008EB7E0_DROP_269_2.3_model_4 Phases=1 bus1=0X008EB7E0_DROP_269_2.3 Kv=0.24 Kw=5.6935 Model=4 Kvar=2.895
New Load.Load_0X008EB998_DROP_270_1.3_model_4 Phases=1 bus1=0X008EB998_DROP_270_1.3 Kv=0.24 Kw=5.429 Model=4 Kvar=2.4228
New Load.Load_0X008EB998_DROP_270_2.3_model_4 Phases=1 bus1=0X008EB998_DROP_270_2.3 Kv=0.24 Kw=5.429 Model=4 Kvar=2.4228
New Load.Load_0X008EB998_DROP_270_3.3_model_4 Phases=1 bus1=0X008EB998_DROP_270_3.3 Kv=0.24 Kw=5.429 Model=4 Kvar=2.4228
New Load.Load_0X008EB998_DROP_271_1.3_model_4 Phases=1 bus1=0X008EB998_DROP_271_1.3 Kv=0.24 Kw=6.113 Model=4 Kvar=2.9415
New Load.Load_0X008ED358_DROP_272_1.3_model_4 Phases=1 bus1=0X008ED358_DROP_272_1.3 Kv=0.24 Kw=3.7891 Model=4 Kvar=1.8183
New Load.Load_0X008ED358_DROP_272_2.3_model_4 Phases=1 bus1=0X008ED358_DROP_272_2.3 Kv=0.24 Kw=3.7891 Model=4 Kvar=1.8183
New Load.Load_0X008ED358_DROP_272_3.3_model_4 Phases=1 bus1=0X008ED358_DROP_272_3.3 Kv=0.24 Kw=3.7891 Model=4 Kvar=1.8183
New Load.Load_0X008ED358_DROP_272_4.3_model_4 Phases=1 bus1=0X008ED358_DROP_272_4.3 Kv=0.24 Kw=3.7891 Model=4 Kvar=1.8183
New Load.Load_0X008ED358_DROP_272_5.3_model_4 Phases=1 bus1=0X008ED358_DROP_272_5.3 Kv=0.24 Kw=3.7891 Model=4 Kvar=1.8183
New Load.Load_0X008ED358_DROP_272_6.3_model_4 Phases=1 bus1=0X008ED358_DROP_272_6.3 Kv=0.24 Kw=3.7891 Model=4 Kvar=1.8183
New Load.Load_0X008ED358_DROP_273_1.3_model_4 Phases=1 bus1=0X008ED358_DROP_273_1.3 Kv=0.24 Kw=4.4977 Model=4 Kvar=1.775
New Load.Load_0X008ED358_DROP_273_2.3_model_4 Phases=1 bus1=0X008ED358_DROP_273_2.3 Kv=0.24 Kw=4.4977 Model=4 Kvar=1.775
New Load.Load_0X008EDA38_DROP_274_1.2_model_4 Phases=1 bus1=0X008EDA38_DROP_274_1.2 Kv=0.24 Kw=3.3957 Model=4 Kvar=1.5191
New Load.Load_0X008EDA38_DROP_274_2.2_model_4 Phases=1 bus1=0X008EDA38_DROP_274_2.2 Kv=0.24 Kw=3.3957 Model=4 Kvar=1.5191
New Load.Load_0X008EDA38_DROP_274_3.2_model_4 Phases=1 bus1=0X008EDA38_DROP_274_3.2 Kv=0.24 Kw=3.3957 Model=4 Kvar=1.5191
New Load.Load_0X008EDA38_DROP_274_4.2_model_4 Phases=1 bus1=0X008EDA38_DROP_274_4.2 Kv=0.24 Kw=3.3957 Model=4 Kvar=1.5191
New Load.Load_0X008EDA38_DROP_274_5.2_model_4 Phases=1 bus1=0X008EDA38_DROP_274_5.2 Kv=0.24 Kw=3.3957 Model=4 Kvar=1.5191
New Load.Load_0X008EDA38_DROP_274_6.2_model_4 Phases=1 bus1=0X008EDA38_DROP_274_6.2 Kv=0.24 Kw=3.3957 Model=4 Kvar=1.5191
New Load.Load_0X008EDA38_DROP_274_7.2_model_4 Phases=1 bus1=0X008EDA38_DROP_274_7.2 Kv=0.24 Kw=3.3957 Model=4 Kvar=1.5191
New Load.Load_0X008EDA38_DROP_274_8.2_model_4 Phases=1 bus1=0X008EDA38_DROP_274_8.2 Kv=0.24 Kw=3.3957 Model=4 Kvar=1.5191
New Load.Load_0X008EDA38_DROP_274_9.2_model_4 Phases=1 bus1=0X008EDA38_DROP_274_9.2 Kv=0.24 Kw=3.3957 Model=4 Kvar=1.5191
New Load.Load_0X008EDA38_DROP_274_10.2_model_4 Phases=1 bus1=0X008EDA38_DROP_274_10.2 Kv=0.24 Kw=3.3957 Model=4 Kvar=1.5191
New Load.Load_0X008EDA38_DROP_274_11.2_model_4 Phases=1 bus1=0X008EDA38_DROP_274_11.2 Kv=0.24 Kw=3.3957 Model=4 Kvar=1.5191
New Load.Load_0X008EDA38_DROP_274_12.2_model_4 Phases=1 bus1=0X008EDA38_DROP_274_12.2 Kv=0.24 Kw=3.3957 Model=4 Kvar=1.5191
New Load.Load_0X008EDA38_DROP_274_13.2_model_4 Phases=1 bus1=0X008EDA38_DROP_274_13.2 Kv=0.24 Kw=3.3957 Model=4 Kvar=1.5191
New Load.Load_0X008EDA38_DROP_274_14.2_model_4 Phases=1 bus1=0X008EDA38_DROP_274_14.2 Kv=0.24 Kw=3.3957 Model=4 Kvar=1.5191
New Load.Load_0X008EDA38_DROP_274_15.2_model_4 Phases=1 bus1=0X008EDA38_DROP_274_15.2 Kv=0.24 Kw=3.3957 Model=4 Kvar=1.5191
New Load.Load_0X008EDA38_DROP_275_1.2_model_4 Phases=1 bus1=0X008EDA38_DROP_275_1.2 Kv=0.24 Kw=4.6952 Model=4 Kvar=2.5629
New Load.Load_0X008EE520_DROP_276_1.2_model_4 Phases=1 bus1=0X008EE520_DROP_276_1.2 Kv=0.24 Kw=5.2371 Model=4 Kvar=2.3726
New Load.Load_0X008EE520_DROP_276_2.2_model_4 Phases=1 bus1=0X008EE520_DROP_276_2.2 Kv=0.24 Kw=5.2371 Model=4 Kvar=2.3726
New Load.Load_0X008EE520_DROP_276_3.2_model_4 Phases=1 bus1=0X008EE520_DROP_276_3.2 Kv=0.24 Kw=5.2371 Model=4 Kvar=2.3726
New Load.Load_0X008EE520_DROP_276_4.2_model_4 Phases=1 bus1=0X008EE520_DROP_276_4.2 Kv=0.24 Kw=5.2371 Model=4 Kvar=2.3726
New Load.Load_0X008EE520_DROP_277_1.2_model_4 Phases=1 bus1=0X008EE520_DROP_277_1.2 Kv=0.24 Kw=6.5459 Model=4 Kvar=3.0097
New Load.Load_0X008EE520_DROP_277_2.2_model_4 Phases=1 bus1=0X008EE520_DROP_277_2.2 Kv=0.24 Kw=6.5459 Model=4 Kvar=3.0097
New Load.Load_0X008F2830_DROP_278_1.2_model_4 Phases=1 bus1=0X008F2830_DROP_278_1.2 Kv=0.24 Kw=3.4838 Model=4 Kvar=1.6298
New Load.Load_0X008F2830_DROP_278_2.2_model_4 Phases=1 bus1=0X008F2830_DROP_278_2.2 Kv=0.24 Kw=3.4838 Model=4 Kvar=1.6298
New Load.Load_0X008F2830_DROP_278_3.2_model_4 Phases=1 bus1=0X008F2830_DROP_278_3.2 Kv=0.24 Kw=3.4838 Model=4 Kvar=1.6298
New Load.Load_0X008F2830_DROP_278_4.2_model_4 Phases=1 bus1=0X008F2830_DROP_278_4.2 Kv=0.24 Kw=3.4838 Model=4 Kvar=1.6298
New Load.Load_0X008F2830_DROP_278_5.2_model_4 Phases=1 bus1=0X008F2830_DROP_278_5.2 Kv=0.24 Kw=3.4838 Model=4 Kvar=1.6298
New Load.Load_0X008F2830_DROP_278_6.2_model_4 Phases=1 bus1=0X008F2830_DROP_278_6.2 Kv=0.24 Kw=3.4838 Model=4 Kvar=1.6298
New Load.Load_0X008F2830_DROP_278_7.2_model_4 Phases=1 bus1=0X008F2830_DROP_278_7.2 Kv=0.24 Kw=3.4838 Model=4 Kvar=1.6298
New Load.Load_0X008F2830_DROP_278_8.2_model_4 Phases=1 bus1=0X008F2830_DROP_278_8.2 Kv=0.24 Kw=3.4838 Model=4 Kvar=1.6298
New Load.Load_0X008F2830_DROP_278_9.2_model_4 Phases=1 bus1=0X008F2830_DROP_278_9.2 Kv=0.24 Kw=3.4838 Model=4 Kvar=1.6298
New Load.Load_0X008F2830_DROP_279_1.2_model_4 Phases=1 bus1=0X008F2830_DROP_279_1.2 Kv=0.24 Kw=5.7171 Model=4 Kvar=2.5284
New Load.Load_0X008F2830_DROP_279_2.2_model_4 Phases=1 bus1=0X008F2830_DROP_279_2.2 Kv=0.24 Kw=5.7171 Model=4 Kvar=2.5284
New Load.Load_0X008F2830_DROP_279_3.2_model_4 Phases=1 bus1=0X008F2830_DROP_279_3.2 Kv=0.24 Kw=5.7171 Model=4 Kvar=2.5284
New Load.Load_0X008F2830_DROP_279_4.2_model_4 Phases=1 bus1=0X008F2830_DROP_279_4.2 Kv=0.24 Kw=5.7171 Model=4 Kvar=2.5284
New Load.Load_0X008F2830_DROP_279_5.2_model_4 Phases=1 bus1=0X008F2830_DROP_279_5.2 Kv=0.24 Kw=5.7171 Model=4 Kvar=2.5284
New Load.Load_0X008F3960_DROP_280_1.2_model_4 Phases=1 bus1=0X008F3960_DROP_280_1.2 Kv=0.24 Kw=2.9763 Model=4 Kvar=1.3562
New Load.Load_0X008F3960_DROP_280_2.2_model_4 Phases=1 bus1=0X008F3960_DROP_280_2.2 Kv=0.24 Kw=2.9763 Model=4 Kvar=1.3563
New Load.Load_0X008F3960_DROP_280_3.2_model_4 Phases=1 bus1=0X008F3960_DROP_280_3.2 Kv=0.24 Kw=2.9763 Model=4 Kvar=1.3562
New Load.Load_0X008F3960_DROP_280_4.2_model_4 Phases=1 bus1=0X008F3960_DROP_280_4.2 Kv=0.24 Kw=2.9763 Model=4 Kvar=1.3562
New Load.Load_0X008F3960_DROP_280_5.2_model_4 Phases=1 bus1=0X008F3960_DROP_280_5.2 Kv=0.24 Kw=2.9763 Model=4 Kvar=1.3562
New Load.Load_0X008F3960_DROP_280_6.2_model_4 Phases=1 bus1=0X008F3960_DROP_280_6.2 Kv=0.24 Kw=2.9763 Model=4 Kvar=1.3562
New Load.Load_0X008F3960_DROP_280_7.2_model_4 Phases=1 bus1=0X008F3960_DROP_280_7.2 Kv=0.24 Kw=2.9762 Model=4 Kvar=1.3562
New Load.Load_0X008F3960_DROP_280_8.2_model_4 Phases=1 bus1=0X008F3960_DROP_280_8.2 Kv=0.24 Kw=2.9763 Model=4 Kvar=1.3563
New Load.Load_0X0089E678_DROP_17_1.1_model_4 Phases=1 bus1=0X0089E678_DROP_17_1.1 Kv=0.12 Kw=34.87 Model=4 Kvar=15.89
New Load.Load_0X0089E678_DROP_17_1.2_model_4 Phases=1 bus1=0X0089E678_DROP_17_1.2 Kv=0.12 Kw=34.87 Model=4 Kvar=15.89
New Load.Load_0X0089E678_DROP_17_1.3_model_4 Phases=1 bus1=0X0089E678_DROP_17_1.3 Kv=0.12 Kw=34.87 Model=4 Kvar=15.89
New Load.Load_0X008D3070_DROP_118_1.1_model_4 Phases=1 bus1=0X008D3070_DROP_118_1.1 Kv=0.28 Kw=62.88 Model=4 Kvar=28.65
New Load.Load_0X008D3070_DROP_118_1.2_model_4 Phases=1 bus1=0X008D3070_DROP_118_1.2 Kv=0.28 Kw=62.88 Model=4 Kvar=28.65
New Load.Load_0X008D3070_DROP_118_1.3_model_4 Phases=1 bus1=0X008D3070_DROP_118_1.3 Kv=0.28 Kw=62.88 Model=4 Kvar=28.65
New Load.Load_0X008E6FB0_DROP_237_1.1_model_4 Phases=1 bus1=0X008E6FB0_DROP_237_1.1 Kv=0.12 Kw=9.055 Model=4 Kvar=4.125
New Load.Load_0X008E6FB0_DROP_237_1.2_model_4 Phases=1 bus1=0X008E6FB0_DROP_237_1.2 Kv=0.12 Kw=9.055 Model=4 Kvar=4.125
New Load.Load_0X008E6FB0_DROP_237_1.3_model_4 Phases=1 bus1=0X008E6FB0_DROP_237_1.3 Kv=0.12 Kw=9.055 Model=4 Kvar=4.125
New Load.Load_0X008E6FB0_DROP_237_2.1_model_4 Phases=1 bus1=0X008E6FB0_DROP_237_2.1 Kv=0.12 Kw=9.055 Model=4 Kvar=4.125
New Load.Load_0X008E6FB0_DROP_237_2.2_model_4 Phases=1 bus1=0X008E6FB0_DROP_237_2.2 Kv=0.12 Kw=9.055 Model=4 Kvar=4.125
New Load.Load_0X008E6FB0_DROP_237_2.3_model_4 Phases=1 bus1=0X008E6FB0_DROP_237_2.3 Kv=0.12 Kw=9.055 Model=4 Kvar=4.125
New Load.Load_0X008E7A00_DROP_244_1.1_model_4 Phases=1 bus1=0X008E7A00_DROP_244_1.1 Kv=0.12 Kw=31.17 Model=4 Kvar=14.2
New Load.Load_0X008E7A00_DROP_244_1.2_model_4 Phases=1 bus1=0X008E7A00_DROP_244_1.2 Kv=0.12 Kw=31.17 Model=4 Kvar=14.2
New Load.Load_0X008E7A00_DROP_244_1.3_model_4 Phases=1 bus1=0X008E7A00_DROP_244_1.3 Kv=0.12 Kw=31.17 Model=4 Kvar=14.2


! Let DSS estimate the voltage bases
Set voltagebases=[66 12.47 0.48 0.416 0.208]
Calcvoltagebases     ! This also establishes the bus list

Buscoords OutputDSS_buscoords.csv


set maxiterations=1000
