Clear

New Circuit.ucsdMicrogrid_Reduced bus1=SDG&E_69KV basekv=69 pu=1 angle=0 frequency=60 MVAsc3=20000 MVAsc1=20000 x1r1=8.6 x0r0=8.9 BaseFreq=60
New Line.e_7_10_2_11_e_1_9_1_11 Phases=3 bus1=e_7_10_2_11.1.2.3 bus2=e_1_9_1_11.1.2.3 Units=km Length=0.09906 Rmatrix=[0.0710846666667    0.0120296666667    0.0120296666667| 0.0120296666667    0.0710846666666    0.0120296666667| 0.0120296666667    0.0120296666667    0.0710846666667|] Xmatrix=[ 0.138888666667    0.0503056666667    0.0503056666667| 0.0503056666667     0.138888666667    0.0503056666667| 0.0503056666667    0.0503056666667     0.138888666667|] Cmatrix=[0                  0                  0| 0                  0                  0| 0                  0                  0|]
New Line.e_1_9_1_11_e_1_9_11 Phases=3 bus1=e_1_9_1_11.1.2.3 bus2=e_1_9_11.1.2.3 Units=km Length=0.012192 Rmatrix=[0.0710846666667    0.0120296666667    0.0120296666667| 0.0120296666667    0.0710846666667    0.0120296666667| 0.0120296666667    0.0120296666667    0.0710846666667|] Xmatrix=[ 0.138888666667    0.0503056666667    0.0503056666667| 0.0503056666667     0.138888666667    0.0503056666667| 0.0503056666667    0.0503056666667     0.138888666667|] Cmatrix=[0                  0                  0| 0                  0                  0| 0                  0                  0|]
New Line.e_1_9_1_11_e_1_9_2_11 Phases=3 bus1=e_1_9_1_11.1.2.3 bus2=e_1_9_2_11.1.2.3 Units=km Length=0.071628 Rmatrix=[0.0710846666667    0.0120296666667    0.0120296666667| 0.0120296666667    0.0710846666667    0.0120296666667| 0.0120296666667    0.0120296666667    0.0710846666667|] Xmatrix=[ 0.138888666667    0.0503056666667    0.0503056666667| 0.0503056666667     0.138888666667    0.0503056666667| 0.0503056666667    0.0503056666667     0.138888666667|] Cmatrix=[0                  0                  0| 0                  0                  0| 0                  0                  0|]
New Line.e_1_9_1_11_ss_74_wc Phases=3 bus1=e_1_9_1_11.1.2.3 bus2=ss_74_wc.1.2.3 Units=km Length=0.025908 Rmatrix=[0.0710846666667    0.0120296666667    0.0120296666667| 0.0120296666667    0.0710846666666    0.0120296666667| 0.0120296666667    0.0120296666667    0.0710846666666|] Xmatrix=[ 0.138888666667    0.0503056666667    0.0503056666667| 0.0503056666667     0.138888666667    0.0503056666667| 0.0503056666667    0.0503056666667     0.138888666667|] Cmatrix=[0                  0                  0| 0                  0                  0| 0                  0                  0|]
New Line.ss23_14_ss_23_wc Phases=3 bus1=ss23_14.1.2.3 bus2=ss_23_wc.1.2.3 Units=km Length=0.0003048 Rmatrix=[0.0656166666668    0.0416666666666    0.0416666666667| 0.0416666666666    0.0656166666668    0.0416666666667| 0.0416666666667    0.0416666666667    0.0656166666662|] Xmatrix=[0.319333333333     0.188103333333     0.188103333333| 0.188103333333     0.319333333334     0.188103333333| 0.188103333333     0.188103333333     0.319333333332|] Cmatrix=[0                  0                  0| 0                  0                  0| 0                  0                  0|]
New Line.ss_23_wc_war_col_1_pri Phases=3 bus1=ss_23_wc.1.2.3 bus2=war_col_1_pri.1.2.3 Units=km Length=0.00762 Rmatrix=[        0.16076    0.0262500000001            0.02625| 0.0262500000001     0.160760000002    0.0262499999993|         0.02625    0.0262499999993            0.16076|] Xmatrix=[ 0.148729999999    0.0503050000003    0.0503050000002| 0.0503050000003     0.148730000001    0.0503049999998| 0.0503050000002    0.0503049999998     0.148730000001|] Cmatrix=[0                  0                  0| 0                  0                  0| 0                  0                  0|]
New Line.ss_126_bus_0861 Phases=3 bus1=ss_126.1.2.3 bus2=bus_0861.1.2.3 Units=km Length=0.0003048 Rmatrix=[ 0.0514000000003   0.00874899999999   0.00874900000001| 0.00874899999999    0.0513999999992   0.00874900000007| 0.00874900000001   0.00874900000007    0.0514000000005|] Xmatrix=[ 0.125767333334    0.0437463333333    0.0437463333333| 0.0437463333333     0.125767333333    0.0437463333334| 0.0437463333333    0.0437463333334     0.125767333335|] Cmatrix=[0                  0                  0| 0                  0                  0| 0                  0                  0|]
New Line.ss_126_bus_0862 Phases=3 bus1=ss_126.1.2.3 bus2=bus_0862.1.2.3 Units=km Length=0.0003048 Rmatrix=[ 0.0514000000005   0.00874899999999   0.00874900000002| 0.00874899999999    0.0513999999996   0.00874900000002| 0.00874900000002   0.00874900000002    0.0513999999998|] Xmatrix=[ 0.125767333334    0.0437463333333    0.0437463333332| 0.0437463333333     0.125767333333    0.0437463333333| 0.0437463333332    0.0437463333333     0.125767333334|] Cmatrix=[0                  0                  0| 0                  0                  0| 0                  0                  0|]
New Line.ss_127_bus_0865 Phases=3 bus1=ss_127.1.2.3 bus2=bus_0865.1.2.3 Units=km Length=0.0003048 Rmatrix=[ 0.0513999999993   0.00874899999996   0.00874899999997| 0.00874899999996    0.0514000000002   0.00874900000003| 0.00874899999997   0.00874900000003    0.0514000000002|] Xmatrix=[ 0.125767333333    0.0437463333335    0.0437463333334| 0.0437463333335     0.125767333333    0.0437463333335| 0.0437463333334    0.0437463333335     0.125767333334|] Cmatrix=[0                  0                  0| 0                  0                  0| 0                  0                  0|]
New Line.ss_127_bus_0866 Phases=3 bus1=ss_127.1.2.3 bus2=bus_0866.1.2.3 Units=km Length=0.0003048 Rmatrix=[  0.051399999999   0.00874899999991   0.00874899999999| 0.00874899999991    0.0514000000001   0.00874899999994| 0.00874899999999   0.00874899999994    0.0513999999996|] Xmatrix=[ 0.125767333333    0.0437463333335    0.0437463333333| 0.0437463333335     0.125767333332    0.0437463333334| 0.0437463333333    0.0437463333334     0.125767333335|] Cmatrix=[0                  0                  0| 0                  0                  0| 0                  0                  0|]
New Line.e_4_404_e_4_1_404 Phases=3 bus1=e_4_404.1.2.3 bus2=e_4_1_404.1.2.3 Units=km Length=0.057912 Rmatrix=[  0.0514           0.008749           0.008749| 0.008749             0.0514           0.008749| 0.008749           0.008749             0.0514|] Xmatrix=[ 0.125767333333    0.0437463333333    0.0437463333333| 0.0437463333333     0.125767333333    0.0437463333333| 0.0437463333333    0.0437463333333     0.125767333333|] Cmatrix=[0                  0                  0| 0                  0                  0| 0                  0                  0|]
New Line.e_4_1_404_e_4_2_404 Phases=3 bus1=e_4_1_404.1.2.3 bus2=e_4_2_404.1.2.3 Units=km Length=0.0679704 Rmatrix=[  0.0514           0.008749           0.008749| 0.008749             0.0514           0.008749| 0.008749           0.008749             0.0514|] Xmatrix=[ 0.125767333333    0.0437463333333    0.0437463333333| 0.0437463333333     0.125767333333    0.0437463333333| 0.0437463333333    0.0437463333333     0.125767333333|] Cmatrix=[0                  0                  0| 0                  0                  0| 0                  0                  0|]
New Line.e_4_405_e_4_1_405 Phases=3 bus1=e_4_405.1.2.3 bus2=e_4_1_405.1.2.3 Units=km Length=0.057912 Rmatrix=[  0.0514           0.008749           0.008749| 0.008749             0.0514           0.008749| 0.008749           0.008749             0.0514|] Xmatrix=[ 0.125767333333    0.0437463333333    0.0437463333333| 0.0437463333333     0.125767333333    0.0437463333333| 0.0437463333333    0.0437463333333     0.125767333333|] Cmatrix=[0                  0                  0| 0                  0                  0| 0                  0                  0|]
New Line.e_4_1_405_e_4_2_405 Phases=3 bus1=e_4_1_405.1.2.3 bus2=e_4_2_405.1.2.3 Units=km Length=0.0679704 Rmatrix=[  0.0514           0.008749           0.008749| 0.008749             0.0514           0.008749| 0.008749           0.008749             0.0514|] Xmatrix=[ 0.125767333333    0.0437463333333    0.0437463333333| 0.0437463333333     0.125767333333    0.0437463333333| 0.0437463333333    0.0437463333333     0.125767333333|] Cmatrix=[0                  0                  0| 0                  0                  0| 0                  0                  0|]
New Line.e_4_409_e_4_1_409 Phases=3 bus1=e_4_409.1.2.3 bus2=e_4_1_409.1.2.3 Units=km Length=0.0612648 Rmatrix=[0.0710846666667    0.0120296666667    0.0120296666667| 0.0120296666667    0.0710846666667    0.0120296666667| 0.0120296666667    0.0120296666667    0.0710846666667|] Xmatrix=[ 0.138888666667    0.0503056666667    0.0503056666667| 0.0503056666667     0.138888666667    0.0503056666667| 0.0503056666667    0.0503056666667     0.138888666667|] Cmatrix=[0                  0                  0| 0                  0                  0| 0                  0                  0|]
New Line.e_4_1_409_e_4_2_409 Phases=3 bus1=e_4_1_409.1.2.3 bus2=e_4_2_409.1.2.3 Units=km Length=0.074676 Rmatrix=[0.0710846666667    0.0120296666667    0.0120296666667| 0.0120296666667    0.0710846666667    0.0120296666667| 0.0120296666667    0.0120296666667    0.0710846666667|] Xmatrix=[ 0.138888666667    0.0503056666667    0.0503056666667| 0.0503056666667     0.138888666667    0.0503056666667| 0.0503056666667    0.0503056666667     0.138888666667|] Cmatrix=[0                  0                  0| 0                  0                  0| 0                  0                  0|]
New Line.e_4_2_404_e_5_4_2_404 Phases=3 bus1=e_4_2_404.1.2.3 bus2=e_5_4_2_404.1.2.3 Units=km Length=0.0381 Rmatrix=[  0.0514           0.008749           0.008749| 0.008749             0.0514           0.008749| 0.008749           0.008749             0.0514|] Xmatrix=[ 0.125767333333    0.0437463333333    0.0437463333333| 0.0437463333333     0.125767333333    0.0437463333333| 0.0437463333333    0.0437463333333     0.125767333333|] Cmatrix=[0                  0                  0| 0                  0                  0| 0                  0                  0|]
New Line.e_4_2_404_ss_131 Phases=3 bus1=e_4_2_404.1.2.3 bus2=ss_131.1.2.3 Units=km Length=0.52578 Rmatrix=[ 0.0513999999993   0.00874899999995   0.00874900000002| 0.00874899999995    0.0514000000001   0.00874900000001| 0.00874900000002   0.00874900000001    0.0513999999997|] Xmatrix=[ 0.125767333332    0.0437463333332    0.0437463333333| 0.0437463333332     0.125767333334    0.0437463333332| 0.0437463333333    0.0437463333332     0.125767333333|] Cmatrix=[0                  0                  0| 0                  0                  0| 0                  0                  0|]
New Line.e_4_2_405_e_5_4_2_405 Phases=3 bus1=e_4_2_405.1.2.3 bus2=e_5_4_2_405.1.2.3 Units=km Length=0.0381 Rmatrix=[  0.0514           0.008749           0.008749| 0.008749             0.0514           0.008749| 0.008749           0.008749             0.0514|] Xmatrix=[ 0.125767333333    0.0437463333333    0.0437463333333| 0.0437463333333     0.125767333333    0.0437463333333| 0.0437463333333    0.0437463333333     0.125767333333|] Cmatrix=[0                  0                  0| 0                  0                  0| 0                  0                  0|]
New Line.e_4_2_405_ss_130 Phases=3 bus1=e_4_2_405.1.2.3 bus2=ss_130.1.2.3 Units=km Length=0.5245608 Rmatrix=[ 0.0514000000001           0.008749   0.00874900000002|         0.008749    0.0514000000001   0.00874899999999| 0.00874900000002   0.00874899999999    0.0514000000003|] Xmatrix=[ 0.125767333333    0.0437463333334    0.0437463333334| 0.0437463333334     0.125767333333    0.0437463333334| 0.0437463333334    0.0437463333334     0.125767333335|] Cmatrix=[0                  0                  0| 0                  0                  0| 0                  0                  0|]
New Line.e_4_2_409_ss_125_mcss Phases=3 bus1=e_4_2_409.1.2.3 bus2=ss_125_mcss.1.2.3 Units=km Length=0.0201168 Rmatrix=[0.0710846666667    0.0120296666667    0.0120296666667| 0.0120296666667    0.0710846666667    0.0120296666667| 0.0120296666667    0.0120296666667    0.0710846666667|] Xmatrix=[ 0.138888666667    0.0503056666667    0.0503056666667| 0.0503056666667     0.138888666667    0.0503056666667| 0.0503056666667    0.0503056666667     0.138888666667|] Cmatrix=[0                  0                  0| 0                  0                  0| 0                  0                  0|]
New Line.mcss_mb_e_4_404 Phases=3 bus1=mcss_mb.1.2.3 bus2=e_4_404.1.2.3 Units=km Length=0.0381 Rmatrix=[  0.0514           0.008749           0.008749| 0.008749             0.0514           0.008749| 0.008749           0.008749             0.0514|] Xmatrix=[ 0.125767333333    0.0437463333333    0.0437463333333| 0.0437463333333     0.125767333333    0.0437463333333| 0.0437463333333    0.0437463333333     0.125767333333|] Cmatrix=[0                  0                  0| 0                  0                  0| 0                  0                  0|]
New Line.mcss_mb_e_4_406 Phases=3 bus1=mcss_mb.1.2.3 bus2=e_4_406.1.2.3 Units=km Length=0.0381 Rmatrix=[  0.0514           0.008749           0.008749| 0.008749             0.0514           0.008749| 0.008749           0.008749             0.0514|] Xmatrix=[ 0.125767333333    0.0437463333333    0.0437463333333| 0.0437463333333     0.125767333333    0.0437463333333| 0.0437463333333    0.0437463333333     0.125767333333|] Cmatrix=[0                  0                  0| 0                  0                  0| 0                  0                  0|]
New Line.mcss_mb_e_6a_6_412 Phases=3 bus1=mcss_mb.1.2.3 bus2=e_6a_6_412.1.2.3 Units=km Length=0.036576 Rmatrix=[0.0710846666667    0.0120296666667    0.0120296666667| 0.0120296666667    0.0710846666667    0.0120296666667| 0.0120296666667    0.0120296666667    0.0710846666667|] Xmatrix=[ 0.138888666667    0.0503056666667    0.0503056666667| 0.0503056666667     0.138888666667    0.0503056666667| 0.0503056666667    0.0503056666667     0.138888666667|] Cmatrix=[0                  0                  0| 0                  0                  0| 0                  0                  0|]
New Line.mcss_mb_bus_xf_cpt_1b Phases=3 bus1=mcss_mb.1.2.3 bus2=bus_xf_cpt_1b.1.2.3 Units=km Length=0.03048 Rmatrix=[ 0.322616666667    0.0535866666667    0.0535866666667| 0.0535866666667     0.322616666667    0.0535866666667| 0.0535866666667    0.0535866666667     0.322616666667|] Xmatrix=[0.16295            0.05468            0.05468| 0.05468            0.16295            0.05468| 0.05468            0.05468            0.16295|] Cmatrix=[0                  0                  0| 0                  0                  0| 0                  0                  0|]
New Line.mcss_ma_e_4_405 Phases=3 bus1=mcss_ma.1.2.3 bus2=e_4_405.1.2.3 Units=km Length=0.03048 Rmatrix=[  0.0514           0.008749           0.008749| 0.008749             0.0514           0.008749| 0.008749           0.008749             0.0514|] Xmatrix=[ 0.125767333333    0.0437463333333    0.0437463333333| 0.0437463333333     0.125767333333    0.0437463333333| 0.0437463333333    0.0437463333333     0.125767333333|] Cmatrix=[0                  0                  0| 0                  0                  0| 0                  0                  0|]
New Line.mcss_ma_e_4_409 Phases=3 bus1=mcss_ma.1.2.3 bus2=e_4_409.1.2.3 Units=km Length=0.033528 Rmatrix=[0.0710846666667    0.0120296666667    0.0120296666667| 0.0120296666667    0.0710846666666    0.0120296666667| 0.0120296666667    0.0120296666667    0.0710846666667|] Xmatrix=[ 0.138888666667    0.0503056666667    0.0503056666667| 0.0503056666667     0.138888666667    0.0503056666667| 0.0503056666667    0.0503056666667     0.138888666667|] Cmatrix=[0                  0                  0| 0                  0                  0| 0                  0                  0|]
New Line.mcss_ma_e_4_407 Phases=3 bus1=mcss_ma.1.2.3 bus2=e_4_407.1.2.3 Units=km Length=0.03048 Rmatrix=[  0.0514           0.008749           0.008749| 0.008749             0.0514           0.008749| 0.008749           0.008749             0.0514|] Xmatrix=[ 0.125767333333    0.0437463333333    0.0437463333333| 0.0437463333333     0.125767333333    0.0437463333333| 0.0437463333333    0.0437463333333     0.125767333333|] Cmatrix=[0                  0                  0| 0                  0                  0| 0                  0                  0|]
New Line.mcss_ma_e_4_413 Phases=3 bus1=mcss_ma.1.2.3 bus2=e_4_413.1.2.3 Units=km Length=0.064008 Rmatrix=[0.0710846666667    0.0120296666667    0.0120296666667| 0.0120296666667    0.0710846666667    0.0120296666667| 0.0120296666667    0.0120296666667    0.0710846666667|] Xmatrix=[ 0.138888666667    0.0503056666667    0.0503056666667| 0.0503056666667     0.138888666667    0.0503056666667| 0.0503056666667    0.0503056666667     0.138888666667|] Cmatrix=[0                  0                  0| 0                  0                  0| 0                  0                  0|]
New Line.mcss_ma_bus_xf_cpt_1a Phases=3 bus1=mcss_ma.1.2.3 bus2=bus_xf_cpt_1a.1.2.3 Units=km Length=0.0277368 Rmatrix=[ 0.322616666667    0.0535866666667    0.0535866666667| 0.0535866666667     0.322616666667    0.0535866666667| 0.0535866666667    0.0535866666667     0.322616666667|] Xmatrix=[0.16295            0.05468            0.05468| 0.05468            0.16295            0.05468| 0.05468            0.05468            0.16295|] Cmatrix=[0                  0                  0| 0                  0                  0| 0                  0                  0|]
New Line.e_4_407_e_5_4_407 Phases=3 bus1=e_4_407.1.2.3 bus2=e_5_4_407.1.2.3 Units=km Length=0.062484 Rmatrix=[  0.0514           0.008749           0.008749| 0.008749             0.0514           0.008749| 0.008749           0.008749             0.0514|] Xmatrix=[ 0.125767333333    0.0437463333333    0.0437463333333| 0.0437463333333     0.125767333333    0.0437463333333| 0.0437463333333    0.0437463333333     0.125767333333|] Cmatrix=[0                  0                  0| 0                  0                  0| 0                  0                  0|]
New Line.e_4_413_e_5_4_413 Phases=3 bus1=e_4_413.1.2.3 bus2=e_5_4_413.1.2.3 Units=km Length=0.062484 Rmatrix=[0.0710846666667    0.0120296666667    0.0120296666667| 0.0120296666667    0.0710846666667    0.0120296666667| 0.0120296666667    0.0120296666667    0.0710846666667|] Xmatrix=[ 0.138888666667    0.0503056666667    0.0503056666667| 0.0503056666667     0.138888666667    0.0503056666667| 0.0503056666667    0.0503056666667     0.138888666667|] Cmatrix=[0                  0                  0| 0                  0                  0| 0                  0                  0|]
New Line.e_5_8_1_413_e_4_9_413 Phases=3 bus1=e_5_8_1_413.1.2.3 bus2=e_4_9_413.1.2.3 Units=km Length=0.1524 Rmatrix=[  0.0514           0.008749           0.008749| 0.008749             0.0514           0.008749| 0.008749           0.008749             0.0514|] Xmatrix=[ 0.125767333333    0.0437463333333    0.0437463333333| 0.0437463333333     0.125767333333    0.0437463333333| 0.0437463333333    0.0437463333333     0.125767333333|] Cmatrix=[0                  0                  0| 0                  0                  0| 0                  0                  0|]
New Line.e_4_9_413_ss_123 Phases=3 bus1=e_4_9_413.1.2.3 bus2=ss_123.1.2.3 Units=km Length=0.1063752 Rmatrix=[  0.0514           0.008749           0.008749| 0.008749             0.0514           0.008749| 0.008749           0.008749             0.0514|] Xmatrix=[ 0.125767333333    0.0437463333333    0.0437463333333| 0.0437463333333     0.125767333333    0.0437463333333| 0.0437463333333    0.0437463333333     0.125767333333|] Cmatrix=[0                  0                  0| 0                  0                  0| 0                  0                  0|]
New Line.e_5_3_ss_138_e_5_3_1_ss_138 Phases=3 bus1=e_5_3_ss_138.1.2.3 bus2=e_5_3_1_ss_138.1.2.3 Units=km Length=0.006096 Rmatrix=[0.0710846666666    0.0120296666667    0.0120296666667| 0.0120296666667    0.0710846666667    0.0120296666667| 0.0120296666667    0.0120296666667    0.0710846666667|] Xmatrix=[ 0.138888666667    0.0503056666667    0.0503056666667| 0.0503056666667     0.138888666667    0.0503056666667| 0.0503056666667    0.0503056666667     0.138888666667|] Cmatrix=[0                  0                  0| 0                  0                  0| 0                  0                  0|]
New Line.e_5_3_1_ss_138_e_5_3_2_ss_138 Phases=3 bus1=e_5_3_1_ss_138.1.2.3 bus2=e_5_3_2_ss_138.1.2.3 Units=km Length=0.067056 Rmatrix=[0.0710846666666    0.0120296666667    0.0120296666667| 0.0120296666667    0.0710846666667    0.0120296666667| 0.0120296666667    0.0120296666667    0.0710846666666|] Xmatrix=[ 0.138888666667    0.0503056666667    0.0503056666667| 0.0503056666667     0.138888666667    0.0503056666667| 0.0503056666667    0.0503056666667     0.138888666667|] Cmatrix=[0                  0                  0| 0                  0                  0| 0                  0                  0|]
New Line.e_5_1_412_e_5_3_412 Phases=3 bus1=e_5_1_412.1.2.3 bus2=e_5_3_412.1.2.3 Units=km Length=0.265176 Rmatrix=[0.0710846666667    0.0120296666667    0.0120296666667| 0.0120296666667    0.0710846666667    0.0120296666667| 0.0120296666667    0.0120296666667    0.0710846666667|] Xmatrix=[ 0.138888666667    0.0503056666667    0.0503056666667| 0.0503056666667     0.138888666667    0.0503056666667| 0.0503056666667    0.0503056666667     0.138888666667|] Cmatrix=[0                  0                  0| 0                  0                  0| 0                  0                  0|]
New Line.e_5_3_412_e_5_2_13 Phases=3 bus1=e_5_3_412.1.2.3 bus2=e_5_2_13.1.2.3 Units=km Length=0.12192 Rmatrix=[0.0710846666667    0.0120296666667    0.0120296666667| 0.0120296666667    0.0710846666667    0.0120296666667| 0.0120296666667    0.0120296666667    0.0710846666667|] Xmatrix=[ 0.138888666667    0.0503056666667    0.0503056666667| 0.0503056666667     0.138888666667    0.0503056666667| 0.0503056666667    0.0503056666667     0.138888666667|] Cmatrix=[0                  0                  0| 0                  0                  0| 0                  0                  0|]
New Line.e_5_3_412_e_5_3_1_412 Phases=3 bus1=e_5_3_412.1.2.3 bus2=e_5_3_1_412.1.2.3 Units=km Length=0.021336 Rmatrix=[0.0710846666667    0.0120296666667    0.0120296666667| 0.0120296666667    0.0710846666667    0.0120296666667| 0.0120296666667    0.0120296666667    0.0710846666666|] Xmatrix=[ 0.138888666667    0.0503056666667    0.0503056666667| 0.0503056666667     0.138888666667    0.0503056666667| 0.0503056666667    0.0503056666667     0.138888666667|] Cmatrix=[0                  0                  0| 0                  0                  0| 0                  0                  0|]
New Line.e_5_1_437_e_5_3_437 Phases=3 bus1=e_5_1_437.1.2.3 bus2=e_5_3_437.1.2.3 Units=km Length=0.265176 Rmatrix=[0.0710846666667    0.0120296666667    0.0120296666667| 0.0120296666667    0.0710846666667    0.0120296666667| 0.0120296666667    0.0120296666667    0.0710846666667|] Xmatrix=[ 0.138888666667    0.0503056666667    0.0503056666667| 0.0503056666667     0.138888666667    0.0503056666667| 0.0503056666667    0.0503056666667     0.138888666667|] Cmatrix=[0                  0                  0| 0                  0                  0| 0                  0                  0|]
New Line.e_5_3_437_e_5_3_1_437 Phases=3 bus1=e_5_3_437.1.2.3 bus2=e_5_3_1_437.1.2.3 Units=km Length=0.021336 Rmatrix=[0.0710846666667    0.0120296666667    0.0120296666667| 0.0120296666667    0.0710846666667    0.0120296666667| 0.0120296666667    0.0120296666667    0.0710846666667|] Xmatrix=[ 0.138888666667    0.0503056666667    0.0503056666667| 0.0503056666667     0.138888666667    0.0503056666667| 0.0503056666667    0.0503056666667     0.138888666667|] Cmatrix=[0                  0                  0| 0                  0                  0| 0                  0                  0|]
New Line.ss_51_ec_e_5_3_ss_138 Phases=3 bus1=ss_51_ec.1.2.3 bus2=e_5_3_ss_138.1.2.3 Units=km Length=0.01524 Rmatrix=[0.0710846666666    0.0120296666667    0.0120296666667| 0.0120296666667    0.0710846666668    0.0120296666667| 0.0120296666667    0.0120296666667    0.0710846666667|] Xmatrix=[ 0.138888666667    0.0503056666667    0.0503056666667| 0.0503056666667     0.138888666667    0.0503056666667| 0.0503056666667    0.0503056666667     0.138888666667|] Cmatrix=[0                  0                  0| 0                  0                  0| 0                  0                  0|]
New Line.ss_51_ec_t_270_pri Phases=3 bus1=ss_51_ec.1.2.3 bus2=t_270_pri.1.2.3 Units=km Length=0.006096 Rmatrix=[0.0710846666667    0.0120296666667    0.0120296666667| 0.0120296666667    0.0710846666666    0.0120296666667| 0.0120296666667    0.0120296666667    0.0710846666666|] Xmatrix=[ 0.138888666667    0.0503056666667    0.0503056666667| 0.0503056666667     0.138888666667    0.0503056666667| 0.0503056666667    0.0503056666667     0.138888666667|] Cmatrix=[0                  0                  0| 0                  0                  0| 0                  0                  0|]
New Line.ss_51_ec_bus_t_357_pri_cng Phases=3 bus1=ss_51_ec.1.2.3 bus2=bus_t_357_pri_cng.1.2.3 Units=km Length=0.041148 Rmatrix=[0.0710846666667    0.0120296666667    0.0120296666667| 0.0120296666667    0.0710846666667    0.0120296666667| 0.0120296666667    0.0120296666667    0.0710846666666|] Xmatrix=[ 0.138888666667    0.0503056666667    0.0503056666667| 0.0503056666667     0.138888666667    0.0503056666667| 0.0503056666667    0.0503056666667     0.138888666667|] Cmatrix=[0                  0                  0| 0                  0                  0| 0                  0                  0|]
New Line.e_5_4_2_404_ss_115_ec Phases=3 bus1=e_5_4_2_404.1.2.3 bus2=ss_115_ec.1.2.3 Units=km Length=0.06858 Rmatrix=[  0.0514           0.008749           0.008749| 0.008749             0.0514           0.008749| 0.008749           0.008749             0.0514|] Xmatrix=[ 0.125767333333    0.0437463333333    0.0437463333333| 0.0437463333333     0.125767333333    0.0437463333333| 0.0437463333333    0.0437463333333     0.125767333333|] Cmatrix=[0                  0                  0| 0                  0                  0| 0                  0                  0|]
New Line.e_5_4_2_405_ss_114_ec Phases=3 bus1=e_5_4_2_405.1.2.3 bus2=ss_114_ec.1.2.3 Units=km Length=0.06858 Rmatrix=[  0.0514           0.008749           0.008749| 0.008749             0.0514           0.008749| 0.008749           0.008749             0.0514|] Xmatrix=[ 0.125767333333    0.0437463333333    0.0437463333333| 0.0437463333333     0.125767333333    0.0437463333333| 0.0437463333333    0.0437463333333     0.125767333333|] Cmatrix=[0                  0                  0| 0                  0                  0| 0                  0                  0|]
New Line.e_4_406_e_5_4_406 Phases=3 bus1=e_4_406.1.2.3 bus2=e_5_4_406.1.2.3 Units=km Length=0.062484 Rmatrix=[  0.0514           0.008749           0.008749| 0.008749             0.0514           0.008749| 0.008749           0.008749             0.0514|] Xmatrix=[ 0.125767333333    0.0437463333333    0.0437463333333| 0.0437463333333     0.125767333333    0.0437463333333| 0.0437463333333    0.0437463333333     0.125767333333|] Cmatrix=[0                  0                  0| 0                  0                  0| 0                  0                  0|]
New Line.e_5_4_406_e_5_5_406 Phases=3 bus1=e_5_4_406.1.2.3 bus2=e_5_5_406.1.2.3 Units=km Length=0.12192 Rmatrix=[0.0710846666667    0.0120296666667    0.0120296666667| 0.0120296666667    0.0710846666667    0.0120296666667| 0.0120296666667    0.0120296666667    0.0710846666667|] Xmatrix=[ 0.138888666667    0.0503056666667    0.0503056666667| 0.0503056666667     0.138888666667    0.0503056666667| 0.0503056666667    0.0503056666667     0.138888666667|] Cmatrix=[0                  0                  0| 0                  0                  0| 0                  0                  0|]
New Line.e_5_4_407_e_5_5_407 Phases=3 bus1=e_5_4_407.1.2.3 bus2=e_5_5_407.1.2.3 Units=km Length=0.12192 Rmatrix=[0.0710846666667    0.0120296666667    0.0120296666667| 0.0120296666667    0.0710846666667    0.0120296666667| 0.0120296666667    0.0120296666667    0.0710846666667|] Xmatrix=[ 0.138888666667    0.0503056666667    0.0503056666667| 0.0503056666667     0.138888666667    0.0503056666667| 0.0503056666667    0.0503056666667     0.138888666667|] Cmatrix=[0                  0                  0| 0                  0                  0| 0                  0                  0|]
New Line.e_5_4_413_e_5_7_413 Phases=3 bus1=e_5_4_413.1.2.3 bus2=e_5_7_413.1.2.3 Units=km Length=0.1085088 Rmatrix=[  0.0514           0.008749           0.008749| 0.008749             0.0514           0.008749| 0.008749           0.008749             0.0514|] Xmatrix=[ 0.125767333333    0.0437463333333    0.0437463333333| 0.0437463333333     0.125767333333    0.0437463333333| 0.0437463333333    0.0437463333333     0.125767333333|] Cmatrix=[0                  0                  0| 0                  0                  0| 0                  0                  0|]
New Line.e_4_436_e_5_4_436 Phases=3 bus1=e_4_436.1.2.3 bus2=e_5_4_436.1.2.3 Units=km Length=0.062484 Rmatrix=[0.0710846666667    0.0120296666667    0.0120296666667| 0.0120296666667    0.0710846666667    0.0120296666667| 0.0120296666667    0.0120296666667    0.0710846666667|] Xmatrix=[ 0.138888666667    0.0503056666667    0.0503056666667| 0.0503056666667     0.138888666667    0.0503056666667| 0.0503056666667    0.0503056666667     0.138888666667|] Cmatrix=[0                  0                  0| 0                  0                  0| 0                  0                  0|]
New Line.e_5_4_436_e_5_5_436 Phases=3 bus1=e_5_4_436.1.2.3 bus2=e_5_5_436.1.2.3 Units=km Length=0.12192 Rmatrix=[0.0710846666667    0.0120296666667    0.0120296666667| 0.0120296666667    0.0710846666667    0.0120296666667| 0.0120296666667    0.0120296666667    0.0710846666667|] Xmatrix=[ 0.138888666667    0.0503056666667    0.0503056666667| 0.0503056666667     0.138888666667    0.0503056666667| 0.0503056666667    0.0503056666667     0.138888666667|] Cmatrix=[0                  0                  0| 0                  0                  0| 0                  0                  0|]
New Line.e_5_7_413_e_5_8_1_413 Phases=3 bus1=e_5_7_413.1.2.3 bus2=e_5_8_1_413.1.2.3 Units=km Length=0.135636 Rmatrix=[  0.0514           0.008749           0.008749| 0.008749             0.0514           0.008749| 0.008749           0.008749             0.0514|] Xmatrix=[ 0.125767333333    0.0437463333333    0.0437463333333| 0.0437463333333     0.125767333333    0.0437463333333| 0.0437463333333    0.0437463333333     0.125767333333|] Cmatrix=[0                  0                  0| 0                  0                  0| 0                  0                  0|]
New Line.e_6a_2_ec_12_e_6a_5_ec_12 Phases=3 bus1=e_6a_2_ec_12.1.2.3 bus2=e_6a_5_ec_12.1.2.3 Units=km Length=0.1271016 Rmatrix=[  0.0514           0.008749           0.008749| 0.008749             0.0514           0.008749| 0.008749           0.008749             0.0514|] Xmatrix=[ 0.125767333333    0.0437463333333    0.0437463333333| 0.0437463333333     0.125767333333    0.0437463333333| 0.0437463333333    0.0437463333333     0.125767333333|] Cmatrix=[0                  0                  0| 0                  0                  0| 0                  0                  0|]
New Line.e_6a_5_ec_12_e_6a_6_ec_12 Phases=3 bus1=e_6a_5_ec_12.1.2.3 bus2=e_6a_6_ec_12.1.2.3 Units=km Length=0.132588 Rmatrix=[  0.0514           0.008749           0.008749| 0.008749             0.0514           0.008749| 0.008749           0.008749             0.0514|] Xmatrix=[ 0.125767333333    0.0437463333333    0.0437463333333| 0.0437463333333     0.125767333333    0.0437463333333| 0.0437463333333    0.0437463333333     0.125767333333|] Cmatrix=[0                  0                  0| 0                  0                  0| 0                  0                  0|]
New Line.e_6a_2_ec_25_e_6a_5_ec_25 Phases=3 bus1=e_6a_2_ec_25.1.2.3 bus2=e_6a_5_ec_25.1.2.3 Units=km Length=0.1271016 Rmatrix=[  0.0514           0.008749           0.008749| 0.008749             0.0514           0.008749| 0.008749           0.008749             0.0514|] Xmatrix=[ 0.125767333333    0.0437463333333    0.0437463333333| 0.0437463333333     0.125767333333    0.0437463333333| 0.0437463333333    0.0437463333333     0.125767333333|] Cmatrix=[0                  0                  0| 0                  0                  0| 0                  0                  0|]
New Line.e_6a_5_ec_25_e_6a_6_ec_25 Phases=3 bus1=e_6a_5_ec_25.1.2.3 bus2=e_6a_6_ec_25.1.2.3 Units=km Length=0.132588 Rmatrix=[  0.0514           0.008749           0.008749| 0.008749             0.0514           0.008749| 0.008749           0.008749             0.0514|] Xmatrix=[ 0.125767333333    0.0437463333333    0.0437463333333| 0.0437463333333     0.125767333333    0.0437463333333| 0.0437463333333    0.0437463333333     0.125767333333|] Cmatrix=[0                  0                  0| 0                  0                  0| 0                  0                  0|]
New Line.e_5_1_37_e_6a_5_ec_37 Phases=3 bus1=e_5_1_37.1.2.3 bus2=e_6a_5_ec_37.1.2.3 Units=km Length=0.1292352 Rmatrix=[  0.0514           0.008749           0.008749| 0.008749             0.0514           0.008749| 0.008749           0.008749             0.0514|] Xmatrix=[ 0.125767333333    0.0437463333333    0.0437463333333| 0.0437463333333     0.125767333333    0.0437463333333| 0.0437463333333    0.0437463333333     0.125767333333|] Cmatrix=[0                  0                  0| 0                  0                  0| 0                  0                  0|]
New Line.e_6a_5_ec_37_e_6a_6_ec_37 Phases=3 bus1=e_6a_5_ec_37.1.2.3 bus2=e_6a_6_ec_37.1.2.3 Units=km Length=0.132588 Rmatrix=[  0.0514           0.008749           0.008749| 0.008749             0.0514           0.008749| 0.008749           0.008749             0.0514|] Xmatrix=[ 0.125767333333    0.0437463333333    0.0437463333333| 0.0437463333333     0.125767333333    0.0437463333333| 0.0437463333333    0.0437463333333     0.125767333333|] Cmatrix=[0                  0                  0| 0                  0                  0| 0                  0                  0|]
New Line.e_6a_6_ec_12_mcss_mb Phases=3 bus1=e_6a_6_ec_12.1.2.3 bus2=mcss_mb.1.2.3 Units=km Length=0.03048 Rmatrix=[  0.0514           0.008749           0.008749| 0.008749             0.0514           0.008749| 0.008749           0.008749             0.0514|] Xmatrix=[ 0.125767333333    0.0437463333333    0.0437463333333| 0.0437463333333     0.125767333333    0.0437463333333| 0.0437463333333    0.0437463333333     0.125767333333|] Cmatrix=[0                  0                  0| 0                  0                  0| 0                  0                  0|]
New Line.e_6a_6_ec_25_mcss_ma Phases=3 bus1=e_6a_6_ec_25.1.2.3 bus2=mcss_ma.1.2.3 Units=km Length=0.0381 Rmatrix=[  0.0514           0.008749           0.008749| 0.008749             0.0514           0.008749| 0.008749           0.008749             0.0514|] Xmatrix=[ 0.125767333333    0.0437463333333    0.0437463333333| 0.0437463333333     0.125767333333    0.0437463333333| 0.0437463333333    0.0437463333333     0.125767333333|] Cmatrix=[0                  0                  0| 0                  0                  0| 0                  0                  0|]
New Line.e_6a_6_ec_37_mcss_mc Phases=3 bus1=e_6a_6_ec_37.1.2.3 bus2=mcss_mc.1.2.3 Units=km Length=0.024384 Rmatrix=[  0.0514           0.008749           0.008749| 0.008749             0.0514           0.008749| 0.008749           0.008749             0.0514|] Xmatrix=[ 0.125767333333    0.0437463333333    0.0437463333333| 0.0437463333333     0.125767333333    0.0437463333333| 0.0437463333333    0.0437463333333     0.125767333333|] Cmatrix=[0                  0                  0| 0                  0                  0| 0                  0                  0|]
New Line.mcss_mc_e_4_436 Phases=3 bus1=mcss_mc.1.2.3 bus2=e_4_436.1.2.3 Units=km Length=0.048768 Rmatrix=[0.0710846666667    0.0120296666667    0.0120296666667| 0.0120296666667    0.0710846666667    0.0120296666667| 0.0120296666667    0.0120296666667    0.0710846666667|] Xmatrix=[ 0.138888666667    0.0503056666667    0.0503056666667| 0.0503056666667     0.138888666667    0.0503056666667| 0.0503056666667    0.0503056666667     0.138888666667|] Cmatrix=[0                  0                  0| 0                  0                  0| 0                  0                  0|]
New Line.mcss_mc_e_6a_6_ma_437 Phases=3 bus1=mcss_mc.1.2.3 bus2=e_6a_6_ma_437.1.2.3 Units=km Length=0.028956 Rmatrix=[0.0710846666667    0.0120296666667    0.0120296666667| 0.0120296666667    0.0710846666667    0.0120296666667| 0.0120296666667    0.0120296666667    0.0710846666667|] Xmatrix=[ 0.138888666667    0.0503056666667    0.0503056666667| 0.0503056666667     0.138888666667    0.0503056666667| 0.0503056666667    0.0503056666667     0.138888666667|] Cmatrix=[0                  0                  0| 0                  0                  0| 0                  0                  0|]
New Line.mcss_mc_bus_xf_cpt_1c Phases=3 bus1=mcss_mc.1.2.3 bus2=bus_xf_cpt_1c.1.2.3 Units=km Length=0.024384 Rmatrix=[ 0.258096666667    0.0415566666667    0.0415566666667| 0.0415566666667     0.258096666667    0.0415566666667| 0.0415566666667    0.0415566666667     0.258096666667|] Xmatrix=[0.15967            0.05468            0.05468| 0.05468            0.15967            0.05468| 0.05468            0.05468            0.15967|] Cmatrix=[0                  0                  0| 0                  0                  0| 0                  0                  0|]
New Line.e_6a_5_412_e_5_1_412 Phases=3 bus1=e_6a_5_412.1.2.3 bus2=e_5_1_412.1.2.3 Units=km Length=0.1292352 Rmatrix=[0.0710846666667    0.0120296666667    0.0120296666667| 0.0120296666667    0.0710846666667    0.0120296666667| 0.0120296666667    0.0120296666667    0.0710846666667|] Xmatrix=[ 0.138888666667    0.0503056666667    0.0503056666667| 0.0503056666667     0.138888666667    0.0503056666667| 0.0503056666667    0.0503056666667     0.138888666667|] Cmatrix=[0                  0                  0| 0                  0                  0| 0                  0                  0|]
New Line.e_6a_5_ma_437_e_5_1_437 Phases=3 bus1=e_6a_5_ma_437.1.2.3 bus2=e_5_1_437.1.2.3 Units=km Length=0.1292352 Rmatrix=[0.0710846666667    0.0120296666667    0.0120296666667| 0.0120296666667    0.0710846666667    0.0120296666667| 0.0120296666667    0.0120296666667    0.0710846666667|] Xmatrix=[ 0.138888666667    0.0503056666667    0.0503056666667| 0.0503056666667     0.138888666667    0.0503056666667| 0.0503056666667    0.0503056666667     0.138888666667|] Cmatrix=[0                  0                  0| 0                  0                  0| 0                  0                  0|]
New Line.e_5_7_406_e_5_8_1_406 Phases=3 bus1=e_5_7_406.1.2.3 bus2=e_5_8_1_406.1.2.3 Units=km Length=0.135636 Rmatrix=[  0.0514           0.008749           0.008749| 0.008749             0.0514           0.008749| 0.008749           0.008749             0.0514|] Xmatrix=[ 0.125767333333    0.0437463333333    0.0437463333333| 0.0437463333333     0.125767333333    0.0437463333333| 0.0437463333333    0.0437463333333     0.125767333333|] Cmatrix=[0                  0                  0| 0                  0                  0| 0                  0                  0|]
New Line.e_5_8_1_406_ss_127 Phases=3 bus1=e_5_8_1_406.1.2.3 bus2=ss_127.1.2.3 Units=km Length=0.088392 Rmatrix=[ 0.0513999999986   0.00874899999991   0.00874899999991| 0.00874899999991    0.0514000000009   0.00874900000016| 0.00874899999991   0.00874900000016    0.0513999999997|] Xmatrix=[ 0.125767333334    0.0437463333333    0.0437463333329| 0.0437463333333     0.125767333333    0.0437463333336| 0.0437463333329    0.0437463333336     0.125767333335|] Cmatrix=[0                  0                  0| 0                  0                  0| 0                  0                  0|]
New Line.e_5_8_1_406_ss_102_ec Phases=3 bus1=e_5_8_1_406.1.2.3 bus2=ss_102_ec.1.2.3 Units=km Length=0.0810768 Rmatrix=[  0.0514           0.008749           0.008749| 0.008749             0.0514           0.008749| 0.008749           0.008749             0.0514|] Xmatrix=[ 0.125767333333    0.0437463333333    0.0437463333333| 0.0437463333333     0.125767333333    0.0437463333333| 0.0437463333333    0.0437463333333     0.125767333333|] Cmatrix=[0                  0                  0| 0                  0                  0| 0                  0                  0|]
New Line.e_5_7_407_e_5_8_1_407 Phases=3 bus1=e_5_7_407.1.2.3 bus2=e_5_8_1_407.1.2.3 Units=km Length=0.135636 Rmatrix=[  0.0514           0.008749           0.008749| 0.008749             0.0514           0.008749| 0.008749           0.008749             0.0514|] Xmatrix=[ 0.125767333333    0.0437463333333    0.0437463333333| 0.0437463333333     0.125767333333    0.0437463333333| 0.0437463333333    0.0437463333333     0.125767333333|] Cmatrix=[0                  0                  0| 0                  0                  0| 0                  0                  0|]
New Line.e_5_8_1_407_ss_126 Phases=3 bus1=e_5_8_1_407.1.2.3 bus2=ss_126.1.2.3 Units=km Length=0.088392 Rmatrix=[ 0.0513999999999   0.00874900000001   0.00874899999997| 0.00874900000001    0.0513999999988   0.00874900000009| 0.00874899999997   0.00874900000009    0.0513999999989|] Xmatrix=[ 0.125767333333    0.0437463333332    0.0437463333336| 0.0437463333332     0.125767333333    0.0437463333333| 0.0437463333336    0.0437463333333     0.125767333333|] Cmatrix=[0                  0                  0| 0                  0                  0| 0                  0                  0|]
New Line.e_5_8_1_407_ss_103_ec Phases=3 bus1=e_5_8_1_407.1.2.3 bus2=ss_103_ec.1.2.3 Units=km Length=0.0810768 Rmatrix=[  0.0514           0.008749           0.008749| 0.008749             0.0514           0.008749| 0.008749           0.008749             0.0514|] Xmatrix=[ 0.125767333333    0.0437463333333    0.0437463333333| 0.0437463333333     0.125767333333    0.0437463333333| 0.0437463333333    0.0437463333333     0.125767333333|] Cmatrix=[0                  0                  0| 0                  0                  0| 0                  0                  0|]
New Line.e_6a_6_412_e_6a_5_412 Phases=3 bus1=e_6a_6_412.1.2.3 bus2=e_6a_5_412.1.2.3 Units=km Length=0.132588 Rmatrix=[0.0710846666667    0.0120296666667    0.0120296666667| 0.0120296666667    0.0710846666667    0.0120296666667| 0.0120296666667    0.0120296666667    0.0710846666667|] Xmatrix=[ 0.138888666667    0.0503056666667    0.0503056666667| 0.0503056666667     0.138888666667    0.0503056666667| 0.0503056666667    0.0503056666667     0.138888666667|] Cmatrix=[0                  0                  0| 0                  0                  0| 0                  0                  0|]
New Line.e_6a_6_ma_437_e_6a_5_ma_437 Phases=3 bus1=e_6a_6_ma_437.1.2.3 bus2=e_6a_5_ma_437.1.2.3 Units=km Length=0.132588 Rmatrix=[0.0710846666667    0.0120296666667    0.0120296666667| 0.0120296666667    0.0710846666667    0.0120296666667| 0.0120296666667    0.0120296666667    0.0710846666667|] Xmatrix=[ 0.138888666667    0.0503056666667    0.0503056666667| 0.0503056666667     0.138888666667    0.0503056666667| 0.0503056666667    0.0503056666667     0.138888666667|] Cmatrix=[0                  0                  0| 0                  0                  0| 0                  0                  0|]
New Line.ss_102_ec_t_051 Phases=3 bus1=ss_102_ec.1.2.3 bus2=t_051.1.2.3 Units=km Length=0.01524 Rmatrix=[0.0710846666666    0.0120296666667    0.0120296666667| 0.0120296666667    0.0710846666667    0.0120296666667| 0.0120296666667    0.0120296666667    0.0710846666667|] Xmatrix=[ 0.138888666667    0.0503056666667    0.0503056666667| 0.0503056666667     0.138888666667    0.0503056666667| 0.0503056666667    0.0503056666667     0.138888666667|] Cmatrix=[0                  0                  0| 0                  0                  0| 0                  0                  0|]
New Line.ss_102_ec_t_053 Phases=3 bus1=ss_102_ec.1.2.3 bus2=t_053.1.2.3 Units=km Length=0.01524 Rmatrix=[0.0710846666666    0.0120296666667    0.0120296666667| 0.0120296666667    0.0710846666667    0.0120296666667| 0.0120296666667    0.0120296666667    0.0710846666667|] Xmatrix=[ 0.138888666667    0.0503056666667    0.0503056666667| 0.0503056666667     0.138888666667    0.0503056666667| 0.0503056666667    0.0503056666667     0.138888666667|] Cmatrix=[0                  0                  0| 0                  0                  0| 0                  0                  0|]
New Line.ss_103_ec_t_050 Phases=3 bus1=ss_103_ec.1.2.3 bus2=t_050.1.2.3 Units=km Length=0.02286 Rmatrix=[0.0710846666667    0.0120296666667    0.0120296666667| 0.0120296666667    0.0710846666667    0.0120296666667| 0.0120296666667    0.0120296666667    0.0710846666667|] Xmatrix=[ 0.138888666667    0.0503056666667    0.0503056666667| 0.0503056666667     0.138888666667    0.0503056666667| 0.0503056666667    0.0503056666667     0.138888666667|] Cmatrix=[0                  0                  0| 0                  0                  0| 0                  0                  0|]
New Line.ss_103_ec_t_049 Phases=3 bus1=ss_103_ec.1.2.3 bus2=t_049.1.2.3 Units=km Length=0.012192 Rmatrix=[0.0710846666667    0.0120296666667    0.0120296666667| 0.0120296666667    0.0710846666667    0.0120296666667| 0.0120296666667    0.0120296666667    0.0710846666667|] Xmatrix=[ 0.138888666667    0.0503056666667    0.0503056666667| 0.0503056666667     0.138888666667    0.0503056666667| 0.0503056666667    0.0503056666667     0.138888666667|] Cmatrix=[0                  0                  0| 0                  0                  0| 0                  0                  0|]
New Line.ss_114_ec_ss_116_ec Phases=3 bus1=ss_114_ec.1.2.3 bus2=ss_116_ec.1.2.3 Units=km Length=0.056388 Rmatrix=[0.0710846666667    0.0120296666667    0.0120296666667| 0.0120296666667    0.0710846666667    0.0120296666667| 0.0120296666667    0.0120296666667    0.0710846666667|] Xmatrix=[ 0.138888666667    0.0503056666667    0.0503056666667| 0.0503056666667     0.138888666667    0.0503056666667| 0.0503056666667    0.0503056666667     0.138888666667|] Cmatrix=[0                  0                  0| 0                  0                  0| 0                  0                  0|]
New Line.ss_115_ec_ss_117_ec Phases=3 bus1=ss_115_ec.1.2.3 bus2=ss_117_ec.1.2.3 Units=km Length=0.056388 Rmatrix=[0.0710846666667    0.0120296666667    0.0120296666667| 0.0120296666667    0.0710846666667    0.0120296666667| 0.0120296666667    0.0120296666667    0.0710846666667|] Xmatrix=[ 0.138888666667    0.0503056666667    0.0503056666667| 0.0503056666667     0.138888666667    0.0503056666667| 0.0503056666667    0.0503056666667     0.138888666667|] Cmatrix=[0                  0                  0| 0                  0                  0| 0                  0                  0|]
New Line.ss_125_mcss_bus_pd_t_304 Phases=3 bus1=ss_125_mcss.1.2.3 bus2=bus_pd_t_304.1.2.3 Units=km Length=0.00762 Rmatrix=[0.0710846666667    0.0120296666667    0.0120296666667| 0.0120296666667    0.0710846666667    0.0120296666667| 0.0120296666667    0.0120296666667    0.0710846666667|] Xmatrix=[ 0.138888666667    0.0503056666667    0.0503056666667| 0.0503056666667     0.138888666667    0.0503056666667| 0.0503056666667    0.0503056666667     0.138888666667|] Cmatrix=[0                  0                  0| 0                  0                  0| 0                  0                  0|]
New Line.ss_125_mcss_bus_jmc_temp_pwr_li_sw Phases=3 bus1=ss_125_mcss.1.2.3 bus2=bus_jmc_temp_pwr_li_sw.1.2.3 Units=km Length=0.42672 Rmatrix=[ 0.071084666664    0.0120296666667    0.0120296666669| 0.0120296666667    0.0710846666661    0.0120296666668| 0.0120296666669    0.0120296666668    0.0710846666687|] Xmatrix=[ 0.138888666669    0.0503056666669    0.0503056666664| 0.0503056666669     0.138888666668    0.0503056666665| 0.0503056666664    0.0503056666665     0.138888666665|] Cmatrix=[0                  0                  0| 0                  0                  0| 0                  0                  0|]
New Line.ss_125_mcss_e_4_2_t_396 Phases=3 bus1=ss_125_mcss.1.2.3 bus2=e_4_2_t_396.1.2.3 Units=km Length=0.0201168 Rmatrix=[0.0710846666667    0.0120296666667    0.0120296666667| 0.0120296666667    0.0710846666667    0.0120296666667| 0.0120296666667    0.0120296666667    0.0710846666667|] Xmatrix=[ 0.138888666667    0.0503056666667    0.0503056666667| 0.0503056666667     0.138888666667    0.0503056666667| 0.0503056666667    0.0503056666667     0.138888666667|] Cmatrix=[0                  0                  0| 0                  0                  0| 0                  0                  0|]
New Line.ss_130_tus_1n_pri Phases=3 bus1=ss_130.1.2.3 bus2=tus_1n_pri.1.2.3 Units=km Length=0.021336 Rmatrix=[  0.0514           0.008749           0.008749| 0.008749             0.0514           0.008749| 0.008749           0.008749             0.0514|] Xmatrix=[ 0.125767333333    0.0437463333333    0.0437463333333| 0.0437463333333     0.125767333333    0.0437463333333| 0.0437463333333    0.0437463333333     0.125767333333|] Cmatrix=[0                  0                  0| 0                  0                  0| 0                  0                  0|]
New Line.ss_130_tus_3n_pri Phases=3 bus1=ss_130.1.2.3 bus2=tus_3n_pri.1.2.3 Units=km Length=0.019812 Rmatrix=[  0.0514           0.008749           0.008749| 0.008749             0.0514           0.008749| 0.008749           0.008749             0.0514|] Xmatrix=[ 0.125767333333    0.0437463333333    0.0437463333333| 0.0437463333333     0.125767333333    0.0437463333333| 0.0437463333333    0.0437463333333     0.125767333333|] Cmatrix=[0                  0                  0| 0                  0                  0| 0                  0                  0|]
New Line.ss_130_tus_5n_pri Phases=3 bus1=ss_130.1.2.3 bus2=tus_5n_pri.1.2.3 Units=km Length=0.010668 Rmatrix=[  0.0514           0.008749           0.008749| 0.008749             0.0514           0.008749| 0.008749           0.008749             0.0514|] Xmatrix=[ 0.125767333333    0.0437463333333    0.0437463333333| 0.0437463333333     0.125767333333    0.0437463333333| 0.0437463333333    0.0437463333333     0.125767333333|] Cmatrix=[0                  0                  0| 0                  0                  0| 0                  0                  0|]
New Line.ss_131_tus_2n_pri Phases=3 bus1=ss_131.1.2.3 bus2=tus_2n_pri.1.2.3 Units=km Length=0.012192 Rmatrix=[  0.0514           0.008749           0.008749| 0.008749             0.0514           0.008749| 0.008749           0.008749             0.0514|] Xmatrix=[ 0.125767333333    0.0437463333333    0.0437463333333| 0.0437463333333     0.125767333333    0.0437463333333| 0.0437463333333    0.0437463333333     0.125767333333|] Cmatrix=[0                  0                  0| 0                  0                  0| 0                  0                  0|]
New Line.ss_131_tus_4n_pri Phases=3 bus1=ss_131.1.2.3 bus2=tus_4n_pri.1.2.3 Units=km Length=0.010668 Rmatrix=[  0.0514           0.008749           0.008749| 0.008749             0.0514           0.008749| 0.008749           0.008749             0.0514|] Xmatrix=[ 0.125767333333    0.0437463333333    0.0437463333333| 0.0437463333333     0.125767333333    0.0437463333333| 0.0437463333333    0.0437463333333     0.125767333333|] Cmatrix=[0                  0                  0| 0                  0                  0| 0                  0                  0|]
New Line.ss_131_tus_6n_pri Phases=3 bus1=ss_131.1.2.3 bus2=tus_6n_pri.1.2.3 Units=km Length=0.024384 Rmatrix=[  0.0514           0.008749           0.008749| 0.008749             0.0514           0.008749| 0.008749           0.008749             0.0514|] Xmatrix=[ 0.125767333333    0.0437463333333    0.0437463333333| 0.0437463333333     0.125767333333    0.0437463333333| 0.0437463333333    0.0437463333333     0.125767333333|] Cmatrix=[0                  0                  0| 0                  0                  0| 0                  0                  0|]
New Line.e_5_3_2_ss_138_ss_138 Phases=3 bus1=e_5_3_2_ss_138.1.2.3 bus2=ss_138.1.2.3 Units=km Length=0.01524 Rmatrix=[0.0710846666667    0.0120296666667    0.0120296666667| 0.0120296666667    0.0710846666667    0.0120296666667| 0.0120296666667    0.0120296666667    0.0710846666667|] Xmatrix=[ 0.138888666667    0.0503056666667    0.0503056666667| 0.0503056666667     0.138888666667    0.0503056666667| 0.0503056666667    0.0503056666667     0.138888666667|] Cmatrix=[0                  0                  0| 0                  0                  0| 0                  0                  0|]
New Line.ss_138_e_5_3_2_t_359_rad Phases=3 bus1=ss_138.1.2.3 bus2=e_5_3_2_t_359_rad.1.2.3 Units=km Length=0.01524 Rmatrix=[0.0710846666667    0.0120296666667    0.0120296666667| 0.0120296666667    0.0710846666667    0.0120296666667| 0.0120296666667    0.0120296666667    0.0710846666667|] Xmatrix=[ 0.138888666667    0.0503056666667    0.0503056666667| 0.0503056666667     0.138888666667    0.0503056666667| 0.0503056666667    0.0503056666667     0.138888666667|] Cmatrix=[0                  0                  0| 0                  0                  0| 0                  0                  0|]
New Line.ss_138_bus_pd_ec_temp_tr Phases=3 bus1=ss_138.1.2.3 bus2=bus_pd_ec_temp_tr.1.2.3 Units=km Length=0.01524 Rmatrix=[0.0710846666667    0.0120296666667    0.0120296666667| 0.0120296666667    0.0710846666667    0.0120296666667| 0.0120296666667    0.0120296666667    0.0710846666667|] Xmatrix=[ 0.138888666667    0.0503056666667    0.0503056666667| 0.0503056666667     0.138888666667    0.0503056666667| 0.0503056666667    0.0503056666667     0.138888666667|] Cmatrix=[0                  0                  0| 0                  0                  0| 0                  0                  0|]
New Line.bus_jmc_temp_pwr_li_sw_bus_jmc_temp_pwr_pri Phases=3 bus1=bus_jmc_temp_pwr_li_sw.1.2.3 bus2=bus_jmc_temp_pwr_pri.1.2.3 Units=km Length=0.0036576 Rmatrix=[0.16076            0.02625            0.02625| 0.02625            0.16076            0.02625| 0.02625            0.02625            0.16076|] Xmatrix=[ 0.14873           0.050305           0.050305| 0.050305            0.14873           0.050305| 0.050305           0.050305            0.14873|] Cmatrix=[0                  0                  0| 0                  0                  0| 0                  0                  0|]
New Line.east_campus_1_bus_xf_cpt_c_pri Phases=3 bus1=east_campus_1.1.2.3 bus2=bus_xf_cpt_c_pri.1.2.3 Units=km Length=0.016764 Rmatrix=[ 0.258096666667    0.0415566666667    0.0415566666667| 0.0415566666667     0.258096666667    0.0415566666667| 0.0415566666667    0.0415566666667     0.258096666667|] Xmatrix=[0.15967            0.05468            0.05468| 0.05468            0.15967            0.05468| 0.05468            0.05468            0.15967|] Cmatrix=[0                  0                  0| 0                  0                  0| 0                  0                  0|]
New Line.east_campus_1_bus_xf_cpt_e_pri Phases=3 bus1=east_campus_1.1.2.3 bus2=bus_xf_cpt_e_pri.1.2.3 Units=km Length=0.01524 Rmatrix=[ 0.258096666667    0.0415566666667    0.0415566666667| 0.0415566666667     0.258096666667    0.0415566666667| 0.0415566666667    0.0415566666667     0.258096666667|] Xmatrix=[0.15967            0.05468            0.05468| 0.05468            0.15967            0.05468| 0.05468            0.05468            0.15967|] Cmatrix=[0                  0                  0| 0                  0                  0| 0                  0                  0|]
New Line.east_campus_1_bus_xf_cpt_w_pri Phases=3 bus1=east_campus_1.1.2.3 bus2=bus_xf_cpt_w_pri.1.2.3 Units=km Length=0.018288 Rmatrix=[ 0.258096666667    0.0415566666667    0.0415566666667| 0.0415566666667     0.258096666667    0.0415566666667| 0.0415566666667    0.0415566666667     0.258096666667|] Xmatrix=[0.15967            0.05468            0.05468| 0.05468            0.15967            0.05468| 0.05468            0.05468            0.15967|] Cmatrix=[0                  0                  0| 0                  0                  0| 0                  0                  0|]
New Line.east_campus_1_e_6_1_19 Phases=3 bus1=east_campus_1.1.2.3 bus2=e_6_1_19.1.2.3 Units=km Length=0.100584 Rmatrix=[0.0710846666667    0.0120296666667    0.0120296666667| 0.0120296666667    0.0710846666667    0.0120296666667| 0.0120296666667    0.0120296666667    0.0710846666667|] Xmatrix=[ 0.138888666667    0.0503056666667    0.0503056666667| 0.0503056666667     0.138888666667    0.0503056666667| 0.0503056666667    0.0503056666667     0.138888666667|] Cmatrix=[0                  0                  0| 0                  0                  0| 0                  0                  0|]
New Line.east_campus_1_e_7_1_7 Phases=3 bus1=east_campus_1.1.2.3 bus2=e_7_1_7.1.2.3 Units=km Length=0.021336 Rmatrix=[0.0710846666667    0.0120296666667    0.0120296666667| 0.0120296666667    0.0710846666667    0.0120296666667| 0.0120296666667    0.0120296666667    0.0710846666667|] Xmatrix=[ 0.138888666667    0.0503056666667    0.0503056666667| 0.0503056666667     0.138888666667    0.0503056666667| 0.0503056666667    0.0503056666667     0.138888666667|] Cmatrix=[0                  0                  0| 0                  0                  0| 0                  0                  0|]
New Line.east_campus_1_e_9_0_ec_25 Phases=3 bus1=east_campus_1.1.2.3 bus2=e_9_0_ec_25.1.2.3 Units=km Length=0.05334 Rmatrix=[  0.0514           0.008749           0.008749| 0.008749    0.0513999999999           0.008749| 0.008749           0.008749             0.0514|] Xmatrix=[ 0.125767333333    0.0437463333333    0.0437463333333| 0.0437463333333     0.125767333333    0.0437463333333| 0.0437463333333    0.0437463333333     0.125767333333|] Cmatrix=[0                  0                  0| 0                  0                  0| 0                  0                  0|]
New Line.east_campus_1_e_7_1_nc1 Phases=3 bus1=east_campus_1.1.2.3 bus2=e_7_1_nc1.1.2.3 Units=km Length=0.021336 Rmatrix=[0.0710846666667    0.0120296666667    0.0120296666667| 0.0120296666667    0.0710846666667    0.0120296666667| 0.0120296666667    0.0120296666667    0.0710846666667|] Xmatrix=[ 0.138888666667    0.0503056666667    0.0503056666667| 0.0503056666667     0.138888666667    0.0503056666667| 0.0503056666667    0.0503056666667     0.138888666667|] Cmatrix=[0                  0                  0| 0                  0                  0| 0                  0                  0|]
New Line.psb_sg1_bus Phases=3 bus1=psb.1.2.3 bus2=sg1_bus.1.2.3 Units=km Length=0.085344 Rmatrix=[0.0710846666664    0.0120296666666    0.0120296666667| 0.0120296666666    0.0710846666666    0.0120296666667| 0.0120296666667    0.0120296666667    0.0710846666658|] Xmatrix=[ 0.138888666666    0.0503056666666    0.0503056666667| 0.0503056666666     0.138888666666    0.0503056666667| 0.0503056666667    0.0503056666667     0.138888666666|] Cmatrix=[0                  0                  0| 0                  0                  0| 0                  0                  0|]
New Line.psb_sw_t_087 Phases=3 bus1=psb.1.2.3 bus2=sw_t_087.1.2.3 Units=km Length=0.04572 Rmatrix=[0.0710846666666    0.0120296666667    0.0120296666666| 0.0120296666667    0.0710846666664    0.0120296666667| 0.0120296666666    0.0120296666667    0.0710846666662|] Xmatrix=[ 0.138888666666    0.0503056666664    0.0503056666665| 0.0503056666664     0.138888666666    0.0503056666666| 0.0503056666665    0.0503056666666     0.138888666666|] Cmatrix=[0                  0                  0| 0                  0                  0| 0                  0                  0|]
New Line.psb_ss_3_rc Phases=3 bus1=psb.1.2.3 bus2=ss_3_rc.1.2.3 Units=km Length=0.073152 Rmatrix=[0.0710846666641    0.0120296666671    0.0120296666672| 0.0120296666671    0.0710846666659    0.0120296666664| 0.0120296666672    0.0120296666664     0.071084666665|] Xmatrix=[ 0.138888666664    0.0503056666662     0.050305666667| 0.0503056666662     0.138888666664    0.0503056666661|  0.050305666667    0.0503056666661     0.138888666666|] Cmatrix=[0                  0                  0| 0                  0                  0| 0                  0                  0|]
New Line.psb_tg2 Phases=3 bus1=psb.1.2.3 bus2=tg2.1.2.3 Units=km Length=0.0762 Rmatrix=[0.0710846666664    0.0120296666666    0.0120296666667| 0.0120296666666    0.0710846666657    0.0120296666666| 0.0120296666667    0.0120296666666    0.0710846666657|] Xmatrix=[ 0.138888666667    0.0503056666669    0.0503056666664| 0.0503056666669     0.138888666665    0.0503056666666| 0.0503056666664    0.0503056666666     0.138888666666|] Cmatrix=[0                  0                  0| 0                  0                  0| 0                  0                  0|]
New Line.psb_psb_line_tg_2 Phases=3 bus1=psb.1.2.3 bus2=psb_line_tg_2.1.2.3 Units=km Length=0.0003048 Rmatrix=[0.0710846666668    0.0120296666666    0.0120296666666| 0.0120296666666    0.0710846666667    0.0120296666668| 0.0120296666666    0.0120296666668    0.0710846666663|] Xmatrix=[ 0.138888666666    0.0503056666667    0.0503056666667| 0.0503056666667     0.138888666667    0.0503056666666| 0.0503056666667    0.0503056666666     0.138888666666|] Cmatrix=[0                  0                  0| 0                  0                  0| 0                  0                  0|]
New Line.e_7_19_4_3rd_c_s166_pri Phases=3 bus1=e_7_19_4.1.2.3 bus2=3rd_c_s166_pri.1.2.3 Units=km Length=0.071628 Rmatrix=[ 0.258096666667    0.0415566666667    0.0415566666667| 0.0415566666667     0.258096666667    0.0415566666667| 0.0415566666667    0.0415566666667     0.258096666667|] Xmatrix=[0.15967            0.05468            0.05468| 0.05468            0.15967            0.05468| 0.05468            0.05468            0.15967|] Cmatrix=[0                  0                  0| 0                  0                  0| 0                  0                  0|]
New Line.3rd_c_s166_pri_bus_t_179_pri Phases=3 bus1=3rd_c_s166_pri.1.2.3 bus2=bus_t_179_pri.1.2.3 Units=km Length=0.070104 Rmatrix=[ 0.258096666667    0.0415566666667    0.0415566666667| 0.0415566666667     0.258096666667    0.0415566666667| 0.0415566666667    0.0415566666667     0.258096666667|] Xmatrix=[0.15967            0.05468            0.05468| 0.05468            0.15967            0.05468| 0.05468            0.05468            0.15967|] Cmatrix=[0                  0                  0| 0                  0                  0| 0                  0                  0|]
New Line.e_7_19_1_e_7_19_4 Phases=3 bus1=e_7_19_1.1.2.3 bus2=e_7_19_4.1.2.3 Units=km Length=0.103632 Rmatrix=[0.0710846666666    0.0120296666667    0.0120296666667| 0.0120296666667    0.0710846666667    0.0120296666667| 0.0120296666667    0.0120296666667    0.0710846666667|] Xmatrix=[ 0.138888666667    0.0503056666667    0.0503056666667| 0.0503056666667     0.138888666667    0.0503056666667| 0.0503056666667    0.0503056666667     0.138888666667|] Cmatrix=[0                  0                  0| 0                  0                  0| 0                  0                  0|]
New Line.e_7_19_1_3rd_c_s206pri Phases=3 bus1=e_7_19_1.1.2.3 bus2=3rd_c_s206pri.1.2.3 Units=km Length=0.088392 Rmatrix=[0.0710846666667    0.0120296666667    0.0120296666667| 0.0120296666667    0.0710846666667    0.0120296666667| 0.0120296666667    0.0120296666667    0.0710846666667|] Xmatrix=[ 0.138888666667    0.0503056666667    0.0503056666667| 0.0503056666667     0.138888666667    0.0503056666667| 0.0503056666667    0.0503056666667     0.138888666667|] Cmatrix=[0                  0                  0| 0                  0                  0| 0                  0                  0|]
New Line.e_7_19_1_irps_pri Phases=3 bus1=e_7_19_1.1.2.3 bus2=irps_pri.1.2.3 Units=km Length=0.019812 Rmatrix=[0.16076            0.02625            0.02625| 0.02625            0.16076            0.02625| 0.02625            0.02625            0.16076|] Xmatrix=[ 0.14873           0.050305           0.050305| 0.050305            0.14873           0.050305| 0.050305           0.050305            0.14873|] Cmatrix=[0                  0                  0| 0                  0                  0| 0                  0                  0|]
New Line.3rd_c_s206pri_t_207_pri Phases=3 bus1=3rd_c_s206pri.1.2.3 bus2=t_207_pri.1.2.3 Units=km Length=0.09144 Rmatrix=[0.0710846666667    0.0120296666667    0.0120296666667| 0.0120296666667    0.0710846666667    0.0120296666667| 0.0120296666667    0.0120296666667    0.0710846666667|] Xmatrix=[ 0.138888666667    0.0503056666667    0.0503056666667| 0.0503056666667     0.138888666667    0.0503056666667| 0.0503056666667    0.0503056666667     0.138888666667|] Cmatrix=[0                  0                  0| 0                  0                  0| 0                  0                  0|]
New Line.e_7_26_1_alex_sp_pri Phases=3 bus1=e_7_26_1.1.2.3 bus2=alex_sp_pri.1.2.3 Units=km Length=0.079248 Rmatrix=[0.16076            0.02625            0.02625| 0.02625            0.16076            0.02625| 0.02625            0.02625            0.16076|] Xmatrix=[ 0.14873           0.050305           0.050305| 0.050305            0.14873           0.050305| 0.050305           0.050305            0.14873|] Cmatrix=[0                  0                  0| 0                  0                  0| 0                  0                  0|]
New Line.ss_35_rc_t_342_pri Phases=3 bus1=ss_35_rc.1.2.3 bus2=t_342_pri.1.2.3 Units=km Length=0.041148 Rmatrix=[0.0710846666667    0.0120296666667    0.0120296666667| 0.0120296666667    0.0710846666667    0.0120296666667| 0.0120296666667    0.0120296666667    0.0710846666667|] Xmatrix=[ 0.138888666667    0.0503056666667    0.0503056666667| 0.0503056666667     0.138888666667    0.0503056666667| 0.0503056666667    0.0503056666667     0.138888666667|] Cmatrix=[0                  0                  0| 0                  0                  0| 0                  0                  0|]
New Line.ss_35_rc_ss_34_rc Phases=3 bus1=ss_35_rc.1.2.3 bus2=ss_34_rc.1.2.3 Units=km Length=0.094488 Rmatrix=[0.0710846666667    0.0120296666667    0.0120296666667| 0.0120296666667    0.0710846666667    0.0120296666667| 0.0120296666667    0.0120296666667    0.0710846666667|] Xmatrix=[ 0.138888666667    0.0503056666667    0.0503056666667| 0.0503056666667     0.138888666667    0.0503056666667| 0.0503056666667    0.0503056666667     0.138888666667|] Cmatrix=[0                  0                  0| 0                  0                  0| 0                  0                  0|]
New Line.e_7_23_1_t_242_pri Phases=3 bus1=e_7_23_1.1.2.3 bus2=t_242_pri.1.2.3 Units=km Length=0.16764 Rmatrix=[3.11463333333      1.95973333333      1.95973333333| 1.95973333333      3.11463333333      1.95973333333| 1.95973333333      1.95973333333      3.11463333333|] Xmatrix=[3.30603333333      1.65573333333      1.65573333333| 1.65573333333      3.30603333333      1.65573333333| 1.65573333333      1.65573333333      3.30603333333|] Cmatrix=[0                  0                  0| 0                  0                  0| 0                  0                  0|]
New Line.ss_88_rc_b_box_rest_pri Phases=3 bus1=ss_88_rc.1.2.3 bus2=b_box_rest_pri.1.2.3 Units=km Length=0.085344 Rmatrix=[0.0710846666667    0.0120296666667    0.0120296666667| 0.0120296666667    0.0710846666667    0.0120296666667| 0.0120296666667    0.0120296666667    0.0710846666667|] Xmatrix=[ 0.138888666667    0.0503056666667    0.0503056666667| 0.0503056666667     0.138888666667    0.0503056666667| 0.0503056666667    0.0503056666667     0.138888666667|] Cmatrix=[0                  0                  0| 0                  0                  0| 0                  0                  0|]
New Line.ss_88_rc_black_box_pri Phases=3 bus1=ss_88_rc.1.2.3 bus2=black_box_pri.1.2.3 Units=km Length=0.03048 Rmatrix=[0.0710846666667    0.0120296666667    0.0120296666667| 0.0120296666667    0.0710846666667    0.0120296666667| 0.0120296666667    0.0120296666667    0.0710846666667|] Xmatrix=[ 0.138888666667    0.0503056666667    0.0503056666667| 0.0503056666667     0.138888666667    0.0503056666667| 0.0503056666667    0.0503056666667     0.138888666667|] Cmatrix=[0                  0                  0| 0                  0                  0| 0                  0                  0|]
New Line.ss_88_rc_mandel_w_pri Phases=3 bus1=ss_88_rc.1.2.3 bus2=mandel_w_pri.1.2.3 Units=km Length=0.03048 Rmatrix=[ 0.258096666667    0.0415566666667    0.0415566666667| 0.0415566666667     0.258096666667    0.0415566666667| 0.0415566666667    0.0415566666667     0.258096666667|] Xmatrix=[0.15967            0.05468            0.05468| 0.05468            0.15967            0.05468| 0.05468            0.05468            0.15967|] Cmatrix=[0                  0                  0| 0                  0                  0| 0                  0                  0|]
New Line.pb_1_102_b_sci_pb3_102 Phases=3 bus1=pb_1_102.1.2.3 bus2=b_sci_pb3_102.1.2.3 Units=km Length=0.047244 Rmatrix=[0.0710846666667    0.0120296666667    0.0120296666667| 0.0120296666667    0.0710846666666    0.0120296666667| 0.0120296666667    0.0120296666667    0.0710846666667|] Xmatrix=[ 0.138888666667    0.0503056666667    0.0503056666667| 0.0503056666667     0.138888666667    0.0503056666667| 0.0503056666667    0.0503056666667     0.138888666667|] Cmatrix=[0                  0                  0| 0                  0                  0| 0                  0                  0|]
New Line.pb_1_102_pb_2_102 Phases=3 bus1=pb_1_102.1.2.3 bus2=pb_2_102.1.2.3 Units=km Length=0.02286 Rmatrix=[0.0710846666667    0.0120296666667    0.0120296666667| 0.0120296666667    0.0710846666667    0.0120296666667| 0.0120296666667    0.0120296666667    0.0710846666667|] Xmatrix=[ 0.138888666667    0.0503056666667    0.0503056666667| 0.0503056666667     0.138888666667    0.0503056666667| 0.0503056666667    0.0503056666667     0.138888666667|] Cmatrix=[0                  0                  0| 0                  0                  0| 0                  0                  0|]
New Line.b_sci_pb3_102_b_sci_pb4_102 Phases=3 bus1=b_sci_pb3_102.1.2.3 bus2=b_sci_pb4_102.1.2.3 Units=km Length=0.051816 Rmatrix=[0.0710846666667    0.0120296666667    0.0120296666667| 0.0120296666667    0.0710846666666    0.0120296666667| 0.0120296666667    0.0120296666667    0.0710846666667|] Xmatrix=[ 0.138888666667    0.0503056666667    0.0503056666667| 0.0503056666667     0.138888666667    0.0503056666667| 0.0503056666667    0.0503056666667     0.138888666667|] Cmatrix=[0                  0                  0| 0                  0                  0| 0                  0                  0|]
New Line.b_sci_pb3_102_ss_45_som Phases=3 bus1=b_sci_pb3_102.1.2.3 bus2=ss_45_som.1.2.3 Units=km Length=0.050292 Rmatrix=[0.0710846666665    0.0120296666666    0.0120296666666| 0.0120296666666    0.0710846666667    0.0120296666667| 0.0120296666666    0.0120296666667    0.0710846666667|] Xmatrix=[ 0.138888666667    0.0503056666666    0.0503056666666| 0.0503056666666     0.138888666667    0.0503056666667| 0.0503056666666    0.0503056666667     0.138888666666|] Cmatrix=[0                  0                  0| 0                  0                  0| 0                  0                  0|]
New Line.pb_1_105_b_sci_pb3_105 Phases=3 bus1=pb_1_105.1.2.3 bus2=b_sci_pb3_105.1.2.3 Units=km Length=0.047244 Rmatrix=[0.0710846666667    0.0120296666667    0.0120296666667| 0.0120296666667    0.0710846666667    0.0120296666667| 0.0120296666667    0.0120296666667    0.0710846666667|] Xmatrix=[ 0.138888666667    0.0503056666667    0.0503056666667| 0.0503056666667     0.138888666667    0.0503056666667| 0.0503056666667    0.0503056666667     0.138888666667|] Cmatrix=[0                  0                  0| 0                  0                  0| 0                  0                  0|]
New Line.pb_1_105_pb_2_105 Phases=3 bus1=pb_1_105.1.2.3 bus2=pb_2_105.1.2.3 Units=km Length=0.02286 Rmatrix=[0.0710846666667    0.0120296666667    0.0120296666667| 0.0120296666667    0.0710846666667    0.0120296666667| 0.0120296666667    0.0120296666667    0.0710846666667|] Xmatrix=[ 0.138888666667    0.0503056666667    0.0503056666667| 0.0503056666667     0.138888666667    0.0503056666667| 0.0503056666667    0.0503056666667     0.138888666667|] Cmatrix=[0                  0                  0| 0                  0                  0| 0                  0                  0|]
New Line.b_sci_pb3_105_b_sci_pb4_105 Phases=3 bus1=b_sci_pb3_105.1.2.3 bus2=b_sci_pb4_105.1.2.3 Units=km Length=0.051816 Rmatrix=[0.0710846666667    0.0120296666667    0.0120296666667| 0.0120296666667    0.0710846666667    0.0120296666667| 0.0120296666667    0.0120296666667    0.0710846666667|] Xmatrix=[ 0.138888666667    0.0503056666667    0.0503056666667| 0.0503056666667     0.138888666667    0.0503056666667| 0.0503056666667    0.0503056666667     0.138888666667|] Cmatrix=[0                  0                  0| 0                  0                  0| 0                  0                  0|]
New Line.b_sci_pb4_102_e_1_2_2_102 Phases=3 bus1=b_sci_pb4_102.1.2.3 bus2=e_1_2_2_102.1.2.3 Units=km Length=0.048768 Rmatrix=[0.0710846666667    0.0120296666667    0.0120296666667| 0.0120296666667    0.0710846666667    0.0120296666667| 0.0120296666667    0.0120296666667    0.0710846666667|] Xmatrix=[ 0.138888666667    0.0503056666666    0.0503056666667| 0.0503056666666     0.138888666667    0.0503056666667| 0.0503056666667    0.0503056666667     0.138888666667|] Cmatrix=[0                  0                  0| 0                  0                  0| 0                  0                  0|]
New Line.b_sci_pb4_105_e_1_2_2_105 Phases=3 bus1=b_sci_pb4_105.1.2.3 bus2=e_1_2_2_105.1.2.3 Units=km Length=0.048768 Rmatrix=[0.0710846666667    0.0120296666667    0.0120296666667| 0.0120296666667    0.0710846666667    0.0120296666667| 0.0120296666667    0.0120296666667    0.0710846666667|] Xmatrix=[ 0.138888666667    0.0503056666667    0.0503056666667| 0.0503056666667     0.138888666667    0.0503056666667| 0.0503056666667    0.0503056666667     0.138888666667|] Cmatrix=[0                  0                  0| 0                  0                  0| 0                  0                  0|]
New Line.ss_95_som_pri_bio_med Phases=3 bus1=ss_95_som.1.2.3 bus2=pri_bio_med.1.2.3 Units=km Length=0.0381 Rmatrix=[0.0710846666667    0.0120296666667    0.0120296666667| 0.0120296666667    0.0710846666667    0.0120296666667| 0.0120296666667    0.0120296666667    0.0710846666667|] Xmatrix=[ 0.138888666667    0.0503056666667    0.0503056666667| 0.0503056666667     0.138888666667    0.0503056666667| 0.0503056666667    0.0503056666667     0.138888666667|] Cmatrix=[0                  0                  0| 0                  0                  0| 0                  0                  0|]
New Line.ss_95_som_pri_bio_med_1 Phases=3 bus1=ss_95_som.1.2.3 bus2=pri_bio_med_1.1.2.3 Units=km Length=0.036576 Rmatrix=[0.0710846666667    0.0120296666667    0.0120296666667| 0.0120296666667    0.0710846666667    0.0120296666667| 0.0120296666667    0.0120296666667    0.0710846666667|] Xmatrix=[ 0.138888666667    0.0503056666667    0.0503056666667| 0.0503056666667     0.138888666667    0.0503056666667| 0.0503056666667    0.0503056666667     0.138888666667|] Cmatrix=[0                  0                  0| 0                  0                  0| 0                  0                  0|]
New Line.ss_64_sio_bus_t_223_pri Phases=3 bus1=ss_64_sio.1.2.3 bus2=bus_t_223_pri.1.2.3 Units=km Length=0.0762 Rmatrix=[0.16076            0.02625            0.02625| 0.02625            0.16076            0.02625| 0.02625            0.02625            0.16076|] Xmatrix=[ 0.14873           0.050305           0.050305| 0.050305            0.14873           0.050305| 0.050305           0.050305            0.14873|] Cmatrix=[0                  0                  0| 0                  0                  0| 0                  0                  0|]
New Line.ss_64_sio_bus_t_349_pri Phases=3 bus1=ss_64_sio.1.2.3 bus2=bus_t_349_pri.1.2.3 Units=km Length=0.0762 Rmatrix=[0.16076            0.02625            0.02625| 0.02625            0.16076            0.02625| 0.02625            0.02625            0.16076|] Xmatrix=[ 0.14873           0.050305           0.050305| 0.050305            0.14873           0.050305| 0.050305           0.050305            0.14873|] Cmatrix=[0                  0                  0| 0                  0                  0| 0                  0                  0|]
New Line.bldg_3b_12kv_bldg_3c_12kv Phases=3 bus1=bldg_3b_12kv.1.2.3 bus2=bldg_3c_12kv.1.2.3 Units=km Length=0.042672 Rmatrix=[0.0710846666666    0.0120296666667    0.0120296666667| 0.0120296666667    0.0710846666667    0.0120296666667| 0.0120296666667    0.0120296666667    0.0710846666667|] Xmatrix=[ 0.138888666667    0.0503056666667    0.0503056666667| 0.0503056666667     0.138888666667    0.0503056666667| 0.0503056666667    0.0503056666667     0.138888666667|] Cmatrix=[0                  0                  0| 0                  0                  0| 0                  0                  0|]
New Line.bldg_3b_12kv_e_2_10_12 Phases=3 bus1=bldg_3b_12kv.1.2.3 bus2=e_2_10_12.1.2.3 Units=km Length=0.079248 Rmatrix=[0.0710846666667    0.0120296666667    0.0120296666667| 0.0120296666667    0.0710846666667    0.0120296666667| 0.0120296666667    0.0120296666667    0.0710846666667|] Xmatrix=[ 0.138888666667    0.0503056666667    0.0503056666667| 0.0503056666667     0.138888666667    0.0503056666667| 0.0503056666667    0.0503056666667     0.138888666667|] Cmatrix=[0                  0                  0| 0                  0                  0| 0                  0                  0|]
New Line.bldg_3b_12kv_sw_t_301/302 Phases=3 bus1=bldg_3b_12kv.1.2.3 bus2=sw_t_301/302.1.2.3 Units=km Length=0.016764 Rmatrix=[0.0656166666666    0.0416666666667    0.0416666666667| 0.0416666666667    0.0656166666667    0.0416666666667| 0.0416666666667    0.0416666666667    0.0656166666667|] Xmatrix=[0.319333333333     0.188103333333     0.188103333333| 0.188103333333     0.319333333333     0.188103333333| 0.188103333333     0.188103333333     0.319333333333|] Cmatrix=[0                  0                  0| 0                  0                  0| 0                  0                  0|]
New Line.bldg_3c_12kv_sw_t_305/306 Phases=3 bus1=bldg_3c_12kv.1.2.3 bus2=sw_t_305/306.1.2.3 Units=km Length=0.042672 Rmatrix=[0.0710846666667    0.0120296666667    0.0120296666667| 0.0120296666667    0.0710846666667    0.0120296666667| 0.0120296666667    0.0120296666667    0.0710846666667|] Xmatrix=[ 0.138888666667    0.0503056666667    0.0503056666667| 0.0503056666667     0.138888666667    0.0503056666667| 0.0503056666667    0.0503056666667     0.138888666667|] Cmatrix=[0                  0                  0| 0                  0                  0| 0                  0                  0|]
New Line.bldg_3b_15_bldg3c_15_12kv Phases=3 bus1=bldg_3b_15.1.2.3 bus2=bldg3c_15_12kv.1.2.3 Units=km Length=0.042672 Rmatrix=[0.0710846666667    0.0120296666667    0.0120296666667| 0.0120296666667    0.0710846666667    0.0120296666667| 0.0120296666667    0.0120296666667    0.0710846666667|] Xmatrix=[ 0.138888666667    0.0503056666667    0.0503056666667| 0.0503056666667     0.138888666667    0.0503056666667| 0.0503056666667    0.0503056666667     0.138888666667|] Cmatrix=[0                  0                  0| 0                  0                  0| 0                  0                  0|]
[...]
New Load.Load_A_2.2_model_1 Phases=1 bus1=A_2.2 Kv=0.28 Kw=65.674 Model=1 Kvar=49.2555
New Load.Load_A_2.3_model_1 Phases=1 bus1=A_2.3 Kv=0.28 Kw=65.674 Model=1 Kvar=49.2555
New Load.Load_A_3.1_model_1 Phases=1 bus1=A_3.1 Kv=0.28 Kw=65.674 Model=1 Kvar=49.2555
New Load.Load_A_3.2_model_1 Phases=1 bus1=A_3.2 Kv=0.28 Kw=65.674 Model=1 Kvar=49.2555
New Load.Load_A_3.3_model_1 Phases=1 bus1=A_3.3 Kv=0.28 Kw=65.674 Model=1 Kvar=49.2555
New Load.Load_A_4.1_model_1 Phases=1 bus1=A_4.1 Kv=0.28 Kw=65.674 Model=1 Kvar=49.2555
New Load.Load_A_4.2_model_1 Phases=1 bus1=A_4.2 Kv=0.28 Kw=65.674 Model=1 Kvar=49.2555
New Load.Load_A_4.3_model_1 Phases=1 bus1=A_4.3 Kv=0.28 Kw=65.674 Model=1 Kvar=49.2555
New Load.Load_DSAB.1_model_1 Phases=1 bus1=DSAB.1 Kv=0.28 Kw=65.674 Model=1 Kvar=49.2555
New Load.Load_DSAB.2_model_1 Phases=1 bus1=DSAB.2 Kv=0.28 Kw=65.674 Model=1 Kvar=49.2555
New Load.Load_DSAB.3_model_1 Phases=1 bus1=DSAB.3 Kv=0.28 Kw=65.674 Model=1 Kvar=49.2555
New Load.Load_T_372_SEC.1_model_1 Phases=1 bus1=T_372_SEC.1 Kv=0.28 Kw=65.674 Model=1 Kvar=49.2555
New Load.Load_T_372_SEC.2_model_1 Phases=1 bus1=T_372_SEC.2 Kv=0.28 Kw=65.674 Model=1 Kvar=49.2555
New Load.Load_T_372_SEC.3_model_1 Phases=1 bus1=T_372_SEC.3 Kv=0.28 Kw=65.674 Model=1 Kvar=49.2555
New Load.Load_T_375_SEC.1_model_1 Phases=1 bus1=T_375_SEC.1 Kv=0.28 Kw=65.674 Model=1 Kvar=49.2555
New Load.Load_T_375_SEC.2_model_1 Phases=1 bus1=T_375_SEC.2 Kv=0.28 Kw=65.674 Model=1 Kvar=49.2555
New Load.Load_T_375_SEC.3_model_1 Phases=1 bus1=T_375_SEC.3 Kv=0.28 Kw=65.674 Model=1 Kvar=49.2555
New Load.Load_T_376_SEC.1_model_1 Phases=1 bus1=T_376_SEC.1 Kv=0.28 Kw=65.674 Model=1 Kvar=49.2555
New Load.Load_T_376_SEC.2_model_1 Phases=1 bus1=T_376_SEC.2 Kv=0.28 Kw=65.674 Model=1 Kvar=49.2555
New Load.Load_T_376_SEC.3_model_1 Phases=1 bus1=T_376_SEC.3 Kv=0.28 Kw=65.674 Model=1 Kvar=49.2555
New Load.Load_T_377_SEC.1_model_1 Phases=1 bus1=T_377_SEC.1 Kv=0.28 Kw=65.674 Model=1 Kvar=49.2555
New Load.Load_T_377_SEC.2_model_1 Phases=1 bus1=T_377_SEC.2 Kv=0.28 Kw=65.674 Model=1 Kvar=49.2555
New Load.Load_T_377_SEC.3_model_1 Phases=1 bus1=T_377_SEC.3 Kv=0.28 Kw=65.674 Model=1 Kvar=49.2555
New Load.Load_HS_APT_A.1_model_1 Phases=1 bus1=HS_APT_A.1 Kv=0.28 Kw=65.674 Model=1 Kvar=49.2555
New Load.Load_HS_APT_A.2_model_1 Phases=1 bus1=HS_APT_A.2 Kv=0.28 Kw=65.674 Model=1 Kvar=49.2555
New Load.Load_HS_APT_A.3_model_1 Phases=1 bus1=HS_APT_A.3 Kv=0.28 Kw=65.674 Model=1 Kvar=49.2555
New Load.Load_HS_APT_B.1_model_1 Phases=1 bus1=HS_APT_B.1 Kv=0.28 Kw=65.674 Model=1 Kvar=49.2555
New Load.Load_HS_APT_B.2_model_1 Phases=1 bus1=HS_APT_B.2 Kv=0.28 Kw=65.674 Model=1 Kvar=49.2555
New Load.Load_HS_APT_B.3_model_1 Phases=1 bus1=HS_APT_B.3 Kv=0.28 Kw=65.674 Model=1 Kvar=49.2555
New Load.Load_CDS1.1_model_1 Phases=1 bus1=CDS1.1 Kv=0.28 Kw=65.674 Model=1 Kvar=49.2555
New Load.Load_CDS1.2_model_1 Phases=1 bus1=CDS1.2 Kv=0.28 Kw=65.674 Model=1 Kvar=49.2555
New Load.Load_CDS1.3_model_1 Phases=1 bus1=CDS1.3 Kv=0.28 Kw=65.674 Model=1 Kvar=49.2555
New Load.Load_SC_MDS.1_model_1 Phases=1 bus1=SC_MDS.1 Kv=0.28 Kw=65.674 Model=1 Kvar=49.2555
New Load.Load_SC_MDS.2_model_1 Phases=1 bus1=SC_MDS.2 Kv=0.28 Kw=65.674 Model=1 Kvar=49.2555
New Load.Load_SC_MDS.3_model_1 Phases=1 bus1=SC_MDS.3 Kv=0.28 Kw=65.674 Model=1 Kvar=49.2555
New Load.Load_T_382_SEC_MSA.1_model_1 Phases=1 bus1=T_382_SEC_MSA.1 Kv=0.28 Kw=65.674 Model=1 Kvar=49.2555
New Load.Load_T_382_SEC_MSA.2_model_1 Phases=1 bus1=T_382_SEC_MSA.2 Kv=0.28 Kw=65.674 Model=1 Kvar=49.2555
New Load.Load_T_382_SEC_MSA.3_model_1 Phases=1 bus1=T_382_SEC_MSA.3 Kv=0.28 Kw=65.674 Model=1 Kvar=49.2555
New Load.Load_ECOB.1_model_1 Phases=1 bus1=ECOB.1 Kv=0.28 Kw=65.674 Model=1 Kvar=49.2555
New Load.Load_ECOB.2_model_1 Phases=1 bus1=ECOB.2 Kv=0.28 Kw=65.674 Model=1 Kvar=49.2555
New Load.Load_ECOB.3_model_1 Phases=1 bus1=ECOB.3 Kv=0.28 Kw=65.674 Model=1 Kvar=49.2555
New Load.Load_T_384_SEC.1_model_1 Phases=1 bus1=T_384_SEC.1 Kv=0.28 Kw=65.674 Model=1 Kvar=49.2555
New Load.Load_T_384_SEC.2_model_1 Phases=1 bus1=T_384_SEC.2 Kv=0.28 Kw=65.674 Model=1 Kvar=49.2555
New Load.Load_T_384_SEC.3_model_1 Phases=1 bus1=T_384_SEC.3 Kv=0.28 Kw=65.674 Model=1 Kvar=49.2555
New Load.Load_T_385_SEC.1_model_1 Phases=1 bus1=T_385_SEC.1 Kv=0.28 Kw=65.674 Model=1 Kvar=49.2555
New Load.Load_T_385_SEC.2_model_1 Phases=1 bus1=T_385_SEC.2 Kv=0.28 Kw=65.674 Model=1 Kvar=49.2555
New Load.Load_T_385_SEC.3_model_1 Phases=1 bus1=T_385_SEC.3 Kv=0.28 Kw=65.674 Model=1 Kvar=49.2555
New Load.Load_T_386_SEC.1_model_1 Phases=1 bus1=T_386_SEC.1 Kv=0.28 Kw=65.674 Model=1 Kvar=49.2555
New Load.Load_T_386_SEC.2_model_1 Phases=1 bus1=T_386_SEC.2 Kv=0.28 Kw=65.674 Model=1 Kvar=49.2555
New Load.Load_T_386_SEC.3_model_1 Phases=1 bus1=T_386_SEC.3 Kv=0.28 Kw=65.674 Model=1 Kvar=49.2555
New Load.Load_USS1.1_model_1 Phases=1 bus1=USS1.1 Kv=0.28 Kw=65.674 Model=1 Kvar=49.2555
New Load.Load_USS1.2_model_1 Phases=1 bus1=USS1.2 Kv=0.28 Kw=65.674 Model=1 Kvar=49.2555
New Load.Load_USS1.3_model_1 Phases=1 bus1=USS1.3 Kv=0.28 Kw=65.674 Model=1 Kvar=49.2555
New Load.Load_USS2.1_model_1 Phases=1 bus1=USS2.1 Kv=0.28 Kw=65.674 Model=1 Kvar=49.2555
New Load.Load_USS2.2_model_1 Phases=1 bus1=USS2.2 Kv=0.28 Kw=65.674 Model=1 Kvar=49.2555
New Load.Load_USS2.3_model_1 Phases=1 bus1=USS2.3 Kv=0.28 Kw=65.674 Model=1 Kvar=49.2555
New Load.Load_USS3.1_model_1 Phases=1 bus1=USS3.1 Kv=0.28 Kw=65.674 Model=1 Kvar=49.2555
New Load.Load_USS3.2_model_1 Phases=1 bus1=USS3.2 Kv=0.28 Kw=65.674 Model=1 Kvar=49.2555
New Load.Load_USS3.3_model_1 Phases=1 bus1=USS3.3 Kv=0.28 Kw=65.674 Model=1 Kvar=49.2555
New Load.Load_T_394_SEC.1_model_1 Phases=1 bus1=T_394_SEC.1 Kv=0.28 Kw=65.674 Model=1 Kvar=49.2555
New Load.Load_T_394_SEC.2_model_1 Phases=1 bus1=T_394_SEC.2 Kv=0.28 Kw=65.674 Model=1 Kvar=49.2555
New Load.Load_T_394_SEC.3_model_1 Phases=1 bus1=T_394_SEC.3 Kv=0.28 Kw=65.674 Model=1 Kvar=49.2555
New Load.Load_CMG.1_model_1 Phases=1 bus1=CMG.1 Kv=0.28 Kw=65.674 Model=1 Kvar=49.2555
New Load.Load_CMG.2_model_1 Phases=1 bus1=CMG.2 Kv=0.28 Kw=65.674 Model=1 Kvar=49.2555
New Load.Load_CMG.3_model_1 Phases=1 bus1=CMG.3 Kv=0.28 Kw=65.674 Model=1 Kvar=49.2555
New Load.Load_BCF_PMP.1_model_1 Phases=1 bus1=BCF_PMP.1 Kv=0.28 Kw=65.674 Model=1 Kvar=49.2555
New Load.Load_BCF_PMP.2_model_1 Phases=1 bus1=BCF_PMP.2 Kv=0.28 Kw=65.674 Model=1 Kvar=49.2555
New Load.Load_BCF_PMP.3_model_1 Phases=1 bus1=BCF_PMP.3 Kv=0.28 Kw=65.674 Model=1 Kvar=49.2555
New Load.Load_PIER.1_model_1 Phases=1 bus1=PIER.1 Kv=0.28 Kw=65.674 Model=1 Kvar=49.2555
New Load.Load_PIER.2_model_1 Phases=1 bus1=PIER.2 Kv=0.28 Kw=65.674 Model=1 Kvar=49.2555
New Load.Load_PIER.3_model_1 Phases=1 bus1=PIER.3 Kv=0.28 Kw=65.674 Model=1 Kvar=49.2555
New Load.Load_DEEP_SEA_DRILL.1_model_1 Phases=1 bus1=DEEP_SEA_DRILL.1 Kv=0.12 Kw=65.674 Model=1 Kvar=49.2555
New Load.Load_DEEP_SEA_DRILL.2_model_1 Phases=1 bus1=DEEP_SEA_DRILL.2 Kv=0.12 Kw=65.674 Model=1 Kvar=49.2555
New Load.Load_DEEP_SEA_DRILL.3_model_1 Phases=1 bus1=DEEP_SEA_DRILL.3 Kv=0.12 Kw=65.674 Model=1 Kvar=49.2555
New Load.Load_CMRR.1_model_1 Phases=1 bus1=CMRR.1 Kv=0.28 Kw=65.674 Model=1 Kvar=49.2555
New Load.Load_CMRR.2_model_1 Phases=1 bus1=CMRR.2 Kv=0.28 Kw=65.674 Model=1 Kvar=49.2555
New Load.Load_CMRR.3_model_1 Phases=1 bus1=CMRR.3 Kv=0.28 Kw=65.674 Model=1 Kvar=49.2555
New Load.Load_T_CRSF_SEC.1_model_1 Phases=1 bus1=T_CRSF_SEC.1 Kv=0.28 Kw=65.674 Model=1 Kvar=49.2555
New Load.Load_T_CRSF_SEC.2_model_1 Phases=1 bus1=T_CRSF_SEC.2 Kv=0.28 Kw=65.674 Model=1 Kvar=49.2555
New Load.Load_T_CRSF_SEC.3_model_1 Phases=1 bus1=T_CRSF_SEC.3 Kv=0.28 Kw=65.674 Model=1 Kvar=49.2555
New Load.Load_MARSHALL_SUB2.1_model_1 Phases=1 bus1=MARSHALL_SUB2.1 Kv=0.12 Kw=10 Model=1 Kvar=7.5
New Load.Load_MARSHALL_SUB2.2_model_1 Phases=1 bus1=MARSHALL_SUB2.2 Kv=0.12 Kw=10 Model=1 Kvar=7.5
New Load.Load_MARSHALL_SUB2.3_model_1 Phases=1 bus1=MARSHALL_SUB2.3 Kv=0.12 Kw=10 Model=1 Kvar=7.5
New Load.Load_MARSHALL_SUB3.1_model_1 Phases=1 bus1=MARSHALL_SUB3.1 Kv=0.12 Kw=10 Model=1 Kvar=7.5
New Load.Load_MARSHALL_SUB3.2_model_1 Phases=1 bus1=MARSHALL_SUB3.2 Kv=0.12 Kw=10 Model=1 Kvar=7.5
New Load.Load_MARSHALL_SUB3.3_model_1 Phases=1 bus1=MARSHALL_SUB3.3 Kv=0.12 Kw=10 Model=1 Kvar=7.5
New Load.Load_MARSHALL_SUB4.1_model_1 Phases=1 bus1=MARSHALL_SUB4.1 Kv=0.12 Kw=10 Model=1 Kvar=7.5
New Load.Load_MARSHALL_SUB4.2_model_1 Phases=1 bus1=MARSHALL_SUB4.2 Kv=0.12 Kw=10 Model=1 Kvar=7.5
New Load.Load_MARSHALL_SUB4.3_model_1 Phases=1 bus1=MARSHALL_SUB4.3 Kv=0.12 Kw=10 Model=1 Kvar=7.5
New Load.Load_T_H34_SEC.1_model_1 Phases=1 bus1=T_H34_SEC.1 Kv=0.12 Kw=10 Model=1 Kvar=7.5
New Load.Load_T_H34_SEC.2_model_1 Phases=1 bus1=T_H34_SEC.2 Kv=0.12 Kw=10 Model=1 Kvar=7.5
New Load.Load_T_H34_SEC.3_model_1 Phases=1 bus1=T_H34_SEC.3 Kv=0.12 Kw=10 Model=1 Kvar=7.5
New Load.Load_T_H35_SEC.1_model_1 Phases=1 bus1=T_H35_SEC.1 Kv=0.12 Kw=10 Model=1 Kvar=7.5
New Load.Load_T_H35_SEC.2_model_1 Phases=1 bus1=T_H35_SEC.2 Kv=0.12 Kw=10 Model=1 Kvar=7.5
New Load.Load_T_H35_SEC.3_model_1 Phases=1 bus1=T_H35_SEC.3 Kv=0.12 Kw=10 Model=1 Kvar=7.5
New Load.Load_T_H36_SEC.1_model_1 Phases=1 bus1=T_H36_SEC.1 Kv=0.12 Kw=10 Model=1 Kvar=7.5
New Load.Load_T_H36_SEC.2_model_1 Phases=1 bus1=T_H36_SEC.2 Kv=0.12 Kw=10 Model=1 Kvar=7.5
New Load.Load_T_H36_SEC.3_model_1 Phases=1 bus1=T_H36_SEC.3 Kv=0.12 Kw=10 Model=1 Kvar=7.5
New Load.Load_T_H37_SEC.1_model_1 Phases=1 bus1=T_H37_SEC.1 Kv=0.12 Kw=10 Model=1 Kvar=7.5
New Load.Load_T_H37_SEC.2_model_1 Phases=1 bus1=T_H37_SEC.2 Kv=0.12 Kw=10 Model=1 Kvar=7.5
New Load.Load_T_H37_SEC.3_model_1 Phases=1 bus1=T_H37_SEC.3 Kv=0.12 Kw=10 Model=1 Kvar=7.5
New Load.Load_PEP_CANY_APTS.1_model_1 Phases=1 bus1=PEP_CANY_APTS.1 Kv=0.12 Kw=10 Model=1 Kvar=7.5
New Load.Load_PEP_CANY_APTS.2_model_1 Phases=1 bus1=PEP_CANY_APTS.2 Kv=0.12 Kw=10 Model=1 Kvar=7.5
New Load.Load_PEP_CANY_APTS.3_model_1 Phases=1 bus1=PEP_CANY_APTS.3 Kv=0.12 Kw=10 Model=1 Kvar=7.5
New Load.Load_BUS_JMC_TEMP_PWR_SEC.1_model_1 Phases=1 bus1=BUS_JMC_TEMP_PWR_SEC.1 Kv=0.28 Kw=65.674 Model=1 Kvar=49.2555
New Load.Load_BUS_JMC_TEMP_PWR_SEC.2_model_1 Phases=1 bus1=BUS_JMC_TEMP_PWR_SEC.2 Kv=0.28 Kw=65.674 Model=1 Kvar=49.2555
New Load.Load_BUS_JMC_TEMP_PWR_SEC.3_model_1 Phases=1 bus1=BUS_JMC_TEMP_PWR_SEC.3 Kv=0.28 Kw=65.674 Model=1 Kvar=49.2555
New Load.Load_TUS_1N_SEC.1_model_1 Phases=1 bus1=TUS_1N_SEC.1 Kv=0.28 Kw=65.674 Model=1 Kvar=49.2555
New Load.Load_TUS_1N_SEC.2_model_1 Phases=1 bus1=TUS_1N_SEC.2 Kv=0.28 Kw=65.674 Model=1 Kvar=49.2555
New Load.Load_TUS_1N_SEC.3_model_1 Phases=1 bus1=TUS_1N_SEC.3 Kv=0.28 Kw=65.674 Model=1 Kvar=49.2555
New Load.Load_TUS_2N_SEC.1_model_1 Phases=1 bus1=TUS_2N_SEC.1 Kv=0.28 Kw=65.674 Model=1 Kvar=49.2555
New Load.Load_TUS_2N_SEC.2_model_1 Phases=1 bus1=TUS_2N_SEC.2 Kv=0.28 Kw=65.674 Model=1 Kvar=49.2555
New Load.Load_TUS_2N_SEC.3_model_1 Phases=1 bus1=TUS_2N_SEC.3 Kv=0.28 Kw=65.674 Model=1 Kvar=49.2555
New Load.Load_TUS_3N_SEC.1_model_1 Phases=1 bus1=TUS_3N_SEC.1 Kv=0.28 Kw=65.674 Model=1 Kvar=49.2555
New Load.Load_TUS_3N_SEC.2_model_1 Phases=1 bus1=TUS_3N_SEC.2 Kv=0.28 Kw=65.674 Model=1 Kvar=49.2555
New Load.Load_TUS_3N_SEC.3_model_1 Phases=1 bus1=TUS_3N_SEC.3 Kv=0.28 Kw=65.674 Model=1 Kvar=49.2555
New Load.Load_TUS_4N_SEC.1_model_1 Phases=1 bus1=TUS_4N_SEC.1 Kv=0.28 Kw=65.674 Model=1 Kvar=49.2555
New Load.Load_TUS_4N_SEC.2_model_1 Phases=1 bus1=TUS_4N_SEC.2 Kv=0.28 Kw=65.674 Model=1 Kvar=49.2555
New Load.Load_TUS_4N_SEC.3_model_1 Phases=1 bus1=TUS_4N_SEC.3 Kv=0.28 Kw=65.674 Model=1 Kvar=49.2555
New Load.Load_TUS_5N_SEC.1_model_1 Phases=1 bus1=TUS_5N_SEC.1 Kv=0.28 Kw=65.674 Model=1 Kvar=49.2555
New Load.Load_TUS_5N_SEC.2_model_1 Phases=1 bus1=TUS_5N_SEC.2 Kv=0.28 Kw=65.674 Model=1 Kvar=49.2555
New Load.Load_TUS_5N_SEC.3_model_1 Phases=1 bus1=TUS_5N_SEC.3 Kv=0.28 Kw=65.674 Model=1 Kvar=49.2555
New Load.Load_TUS_6N_SEC.1_model_1 Phases=1 bus1=TUS_6N_SEC.1 Kv=0.28 Kw=65.674 Model=1 Kvar=49.2555
New Load.Load_TUS_6N_SEC.2_model_1 Phases=1 bus1=TUS_6N_SEC.2 Kv=0.28 Kw=65.674 Model=1 Kvar=49.2555
New Load.Load_TUS_6N_SEC.3_model_1 Phases=1 bus1=TUS_6N_SEC.3 Kv=0.28 Kw=65.674 Model=1 Kvar=49.2555
New Load.Load_BUS_XF_CPT_1A_SEC.1_model_1 Phases=1 bus1=BUS_XF_CPT_1A_SEC.1 Kv=0.14 Kw=10 Model=1 Kvar=7.5
New Load.Load_BUS_XF_CPT_1A_SEC.2_model_1 Phases=1 bus1=BUS_XF_CPT_1A_SEC.2 Kv=0.14 Kw=10 Model=1 Kvar=7.5
New Load.Load_BUS_XF_CPT_1A_SEC.3_model_1 Phases=1 bus1=BUS_XF_CPT_1A_SEC.3 Kv=0.14 Kw=10 Model=1 Kvar=7.5
New Load.Load_BUS_XF_CPT_1B_SEC.1_model_1 Phases=1 bus1=BUS_XF_CPT_1B_SEC.1 Kv=0.14 Kw=10 Model=1 Kvar=7.5
New Load.Load_BUS_XF_CPT_1B_SEC.2_model_1 Phases=1 bus1=BUS_XF_CPT_1B_SEC.2 Kv=0.14 Kw=10 Model=1 Kvar=7.5
New Load.Load_BUS_XF_CPT_1B_SEC.3_model_1 Phases=1 bus1=BUS_XF_CPT_1B_SEC.3 Kv=0.14 Kw=10 Model=1 Kvar=7.5
New Load.Load_BUS_XF_CPT_1C_SEC.1_model_1 Phases=1 bus1=BUS_XF_CPT_1C_SEC.1 Kv=0.14 Kw=10 Model=1 Kvar=7.5
New Load.Load_BUS_XF_CPT_1C_SEC.2_model_1 Phases=1 bus1=BUS_XF_CPT_1C_SEC.2 Kv=0.14 Kw=10 Model=1 Kvar=7.5
New Load.Load_BUS_XF_CPT_1C_SEC.3_model_1 Phases=1 bus1=BUS_XF_CPT_1C_SEC.3 Kv=0.14 Kw=10 Model=1 Kvar=7.5
New Load.Load_BUS_XF_CPT_C_SEC.1_model_1 Phases=1 bus1=BUS_XF_CPT_C_SEC.1 Kv=0.14 Kw=10 Model=1 Kvar=7.5
New Load.Load_BUS_XF_CPT_C_SEC.2_model_1 Phases=1 bus1=BUS_XF_CPT_C_SEC.2 Kv=0.14 Kw=10 Model=1 Kvar=7.5
New Load.Load_BUS_XF_CPT_C_SEC.3_model_1 Phases=1 bus1=BUS_XF_CPT_C_SEC.3 Kv=0.14 Kw=10 Model=1 Kvar=7.5
New Load.Load_BUS_XF_CPT_E_SEC.1_model_1 Phases=1 bus1=BUS_XF_CPT_E_SEC.1 Kv=0.14 Kw=10 Model=1 Kvar=7.5
New Load.Load_BUS_XF_CPT_E_SEC.2_model_1 Phases=1 bus1=BUS_XF_CPT_E_SEC.2 Kv=0.14 Kw=10 Model=1 Kvar=7.5
New Load.Load_BUS_XF_CPT_E_SEC.3_model_1 Phases=1 bus1=BUS_XF_CPT_E_SEC.3 Kv=0.14 Kw=10 Model=1 Kvar=7.5
New Load.Load_BUS_XF_CPT_W_SEC.1_model_1 Phases=1 bus1=BUS_XF_CPT_W_SEC.1 Kv=0.14 Kw=10 Model=1 Kvar=7.5
New Load.Load_BUS_XF_CPT_W_SEC.2_model_1 Phases=1 bus1=BUS_XF_CPT_W_SEC.2 Kv=0.14 Kw=10 Model=1 Kvar=7.5
New Load.Load_BUS_XF_CPT_W_SEC.3_model_1 Phases=1 bus1=BUS_XF_CPT_W_SEC.3 Kv=0.14 Kw=10 Model=1 Kvar=7.5
New Load.Load_EV_BIRCH_P017.1_model_1 Phases=1 bus1=EV_BIRCH_P017.1 Kv=0.12 Kw=2.4 Model=1 Kvar=0
New Load.Load_EV_BIRCH_P017.2_model_1 Phases=1 bus1=EV_BIRCH_P017.2 Kv=0.12 Kw=2.4 Model=1 Kvar=0
New Load.Load_EV_BIRCH_P017.3_model_1 Phases=1 bus1=EV_BIRCH_P017.3 Kv=0.12 Kw=2.4 Model=1 Kvar=0
New Load.Load_EV_ATHENA.1_model_1 Phases=1 bus1=EV_ATHENA.1 Kv=0.12 Kw=53.1267 Model=1 Kvar=0
New Load.Load_EV_ATHENA.2_model_1 Phases=1 bus1=EV_ATHENA.2 Kv=0.12 Kw=53.1267 Model=1 Kvar=0
New Load.Load_EV_ATHENA.3_model_1 Phases=1 bus1=EV_ATHENA.3 Kv=0.12 Kw=53.1267 Model=1 Kvar=0
New Load.Load_EV_OSLER.1_model_1 Phases=1 bus1=EV_OSLER.1 Kv=0.12 Kw=35.6133 Model=1 Kvar=0
New Load.Load_EV_OSLER.2_model_1 Phases=1 bus1=EV_OSLER.2 Kv=0.12 Kw=35.6133 Model=1 Kvar=0
New Load.Load_EV_OSLER.3_model_1 Phases=1 bus1=EV_OSLER.3 Kv=0.12 Kw=35.6133 Model=1 Kvar=0
New Load.Load_EV_EC_PS.1_model_1 Phases=1 bus1=EV_EC_PS.1 Kv=0.12 Kw=15.0233 Model=1 Kvar=0
New Load.Load_EV_EC_PS.2_model_1 Phases=1 bus1=EV_EC_PS.2 Kv=0.12 Kw=15.0233 Model=1 Kvar=0
New Load.Load_EV_EC_PS.3_model_1 Phases=1 bus1=EV_EC_PS.3 Kv=0.12 Kw=15.0233 Model=1 Kvar=0
New Load.Load_EV_ECUP.1_model_1 Phases=1 bus1=EV_ECUP.1 Kv=0.12 Kw=13.6833 Model=1 Kvar=0
New Load.Load_EV_ECUP.2_model_1 Phases=1 bus1=EV_ECUP.2 Kv=0.12 Kw=13.6833 Model=1 Kvar=0
New Load.Load_EV_ECUP.3_model_1 Phases=1 bus1=EV_ECUP.3 Kv=0.12 Kw=13.6833 Model=1 Kvar=0
New Load.Load_EV_FC_P206.1_model_1 Phases=1 bus1=EV_FC_P206.1 Kv=0.12 Kw=2.4 Model=1 Kvar=0
New Load.Load_EV_FC_P206.2_model_1 Phases=1 bus1=EV_FC_P206.2 Kv=0.12 Kw=2.4 Model=1 Kvar=0
New Load.Load_EV_FC_P206.3_model_1 Phases=1 bus1=EV_FC_P206.3 Kv=0.12 Kw=2.4 Model=1 Kvar=0
New Load.Load_EV_GILMAN_PS.1_model_1 Phases=1 bus1=EV_GILMAN_PS.1 Kv=0.12 Kw=19.64 Model=1 Kvar=0
New Load.Load_EV_GILMAN_PS.2_model_1 Phases=1 bus1=EV_GILMAN_PS.2 Kv=0.12 Kw=19.64 Model=1 Kvar=0
New Load.Load_EV_GILMAN_PS.3_model_1 Phases=1 bus1=EV_GILMAN_PS.3 Kv=0.12 Kw=19.64 Model=1 Kvar=0
New Load.Load_EV_HOPKINS_PS.1_model_1 Phases=1 bus1=EV_HOPKINS_PS.1 Kv=0.12 Kw=7.2 Model=1 Kvar=0
New Load.Load_EV_HOPKINS_PS.2_model_1 Phases=1 bus1=EV_HOPKINS_PS.2 Kv=0.12 Kw=7.2 Model=1 Kvar=0
New Load.Load_EV_HOPKINS_PS.3_model_1 Phases=1 bus1=EV_HOPKINS_PS.3 Kv=0.12 Kw=7.2 Model=1 Kvar=0
New Load.Load_EV_KECK_P014.1_model_1 Phases=1 bus1=EV_KECK_P014.1 Kv=0.12 Kw=6.1667 Model=1 Kvar=0
New Load.Load_EV_KECK_P014.2_model_1 Phases=1 bus1=EV_KECK_P014.2 Kv=0.12 Kw=6.1667 Model=1 Kvar=0
New Load.Load_EV_KECK_P014.3_model_1 Phases=1 bus1=EV_KECK_P014.3 Kv=0.12 Kw=6.1667 Model=1 Kvar=0
New Load.Load_EV_KEELING_APTS_P103.1_model_1 Phases=1 bus1=EV_KEELING_APTS_P103.1 Kv=0.12 Kw=9.14 Model=1 Kvar=0
New Load.Load_EV_KEELING_APTS_P103.2_model_1 Phases=1 bus1=EV_KEELING_APTS_P103.2 Kv=0.12 Kw=9.14 Model=1 Kvar=0
New Load.Load_EV_KEELING_APTS_P103.3_model_1 Phases=1 bus1=EV_KEELING_APTS_P103.3 Kv=0.12 Kw=9.14 Model=1 Kvar=0
New Load.Load_EV_MESOM_P013.1_model_1 Phases=1 bus1=EV_MESOM_P013.1 Kv=0.12 Kw=2.4 Model=1 Kvar=0
New Load.Load_EV_MESOM_P013.2_model_1 Phases=1 bus1=EV_MESOM_P013.2 Kv=0.12 Kw=2.4 Model=1 Kvar=0
New Load.Load_EV_MESOM_P013.3_model_1 Phases=1 bus1=EV_MESOM_P013.3 Kv=0.12 Kw=2.4 Model=1 Kvar=0
New Load.Load_EV_PANGEA_PS.1_model_1 Phases=1 bus1=EV_PANGEA_PS.1 Kv=0.12 Kw=43.48 Model=1 Kvar=0
New Load.Load_EV_PANGEA_PS.2_model_1 Phases=1 bus1=EV_PANGEA_PS.2 Kv=0.12 Kw=43.48 Model=1 Kvar=0
New Load.Load_EV_PANGEA_PS.3_model_1 Phases=1 bus1=EV_PANGEA_PS.3 Kv=0.12 Kw=43.48 Model=1 Kvar=0
New Load.Load_EV_RITTER_HALL_P004.1_model_1 Phases=1 bus1=EV_RITTER_HALL_P004.1 Kv=0.12 Kw=2.4 Model=1 Kvar=0
New Load.Load_EV_RITTER_HALL_P004.2_model_1 Phases=1 bus1=EV_RITTER_HALL_P004.2 Kv=0.12 Kw=2.4 Model=1 Kvar=0
New Load.Load_EV_RITTER_HALL_P004.3_model_1 Phases=1 bus1=EV_RITTER_HALL_P004.3 Kv=0.12 Kw=2.4 Model=1 Kvar=0
New Load.Load_EV_CAROLINES_P001.1_model_1 Phases=1 bus1=EV_CAROLINES_P001.1 Kv=0.12 Kw=4.8 Model=1 Kvar=0
New Load.Load_EV_CAROLINES_P001.2_model_1 Phases=1 bus1=EV_CAROLINES_P001.2 Kv=0.12 Kw=4.8 Model=1 Kvar=0
New Load.Load_EV_CAROLINES_P001.3_model_1 Phases=1 bus1=EV_CAROLINES_P001.3 Kv=0.12 Kw=4.8 Model=1 Kvar=0
New Load.Load_EV_SME.1_model_1 Phases=1 bus1=EV_SME.1 Kv=0.12 Kw=4.8 Model=1 Kvar=0
New Load.Load_EV_SME.2_model_1 Phases=1 bus1=EV_SME.2 Kv=0.12 Kw=4.8 Model=1 Kvar=0
New Load.Load_EV_SME.3_model_1 Phases=1 bus1=EV_SME.3 Kv=0.12 Kw=4.8 Model=1 Kvar=0
New Load.Load_EV_HOUSING_ADMIN.1_model_1 Phases=1 bus1=EV_HOUSING_ADMIN.1 Kv=0.12 Kw=4.8 Model=1 Kvar=0
New Load.Load_EV_HOUSING_ADMIN.2_model_1 Phases=1 bus1=EV_HOUSING_ADMIN.2 Kv=0.12 Kw=4.8 Model=1 Kvar=0
New Load.Load_EV_HOUSING_ADMIN.3_model_1 Phases=1 bus1=EV_HOUSING_ADMIN.3 Kv=0.12 Kw=4.8 Model=1 Kvar=0
New Load.Load_EV_PMS.1_model_1 Phases=1 bus1=EV_PMS.1 Kv=0.12 Kw=2.4 Model=1 Kvar=0
New Load.Load_EV_PMS.2_model_1 Phases=1 bus1=EV_PMS.2 Kv=0.12 Kw=2.4 Model=1 Kvar=0
New Load.Load_EV_PMS.3_model_1 Phases=1 bus1=EV_PMS.3 Kv=0.12 Kw=2.4 Model=1 Kvar=0
New Generator.Gen_SG1_BUS.1_model_1 Phases=1 bus1=SG1_BUS.1 Kv=7.2 Kw=1000 Model=1 Kvar=539.7428
New Generator.Gen_SG1_BUS.2_model_1 Phases=1 bus1=SG1_BUS.2 Kv=7.2 Kw=1000 Model=1 Kvar=539.7428
New Generator.Gen_SG1_BUS.3_model_1 Phases=1 bus1=SG1_BUS.3 Kv=7.2 Kw=1000 Model=1 Kvar=539.7429
New Generator.Gen_TG1.1_model_1 Phases=1 bus1=TG1.1 Kv=7.2 Kw=5100 Model=1 Kvar=2752.6884
New Generator.Gen_TG1.2_model_1 Phases=1 bus1=TG1.2 Kv=7.2 Kw=5100 Model=1 Kvar=2752.6884
New Generator.Gen_TG1.3_model_1 Phases=1 bus1=TG1.3 Kv=7.2 Kw=5100 Model=1 Kvar=2752.6884
New Generator.Gen_TG2.1_model_1 Phases=1 bus1=TG2.1 Kv=7.2 Kw=5100 Model=1 Kvar=2752.6884
New Generator.Gen_TG2.2_model_1 Phases=1 bus1=TG2.2 Kv=7.2 Kw=5100 Model=1 Kvar=2752.6884
New Generator.Gen_TG2.3_model_1 Phases=1 bus1=TG2.3 Kv=7.2 Kw=5100 Model=1 Kvar=2752.6884


! Let DSS estimate the voltage bases
Set voltagebases=[115 69 12.47 4.16 2.4 0.48 0.24 0.208 0.12]
Calcvoltagebases     ! This also establishes the bus list

Buscoords OutputDSS_buscoords.csv


set maxiterations=1000
