Clear

New Circuit.ckt5_Reduced pu=1.05 R1=0 X1=0.001 R0=0 X0=0.001
New Line._mdv_sub_1_lsb_mdv201 Phases=3 bus1=_mdv_sub_1_lsb.1.2.3 bus2=mdv201.1.2.3 Units=km Length=0.001 Rmatrix=[0.000999999999986                  0                  0|                 0              0.001                  0|                 0                  0   0.00100000000001|] Xmatrix=[0.01                  0                  0|    0    0.0100000000001                  0|    0                  0               0.01|] Cmatrix=[0                  0                  0| 0                  0                  0| 0                  0                  0|]
New Line.mdv201_mdv201_hn_2_793_abc1023346_int Phases=3 bus1=mdv201.1.2.3 bus2=mdv201_hn_2_793_abc1023346_int.1.2.3 Units=km Length=0.001 Rmatrix=[0.999999999964                  0                  0|              0     0.999999999966                  0|              0                  0     0.999999999962|] Xmatrix=[0.999999999968                  0                  0|              0     0.999999999967                  0|              0                  0     0.999999999964|] Cmatrix=[0                  0                  0| 0                  0                  0| 0                  0                  0|]
New Line.94743_94744 Phases=1 bus1=94743.1 bus2=94744.1 Units=km Length=0.078943197 Rmatrix=0.058 Xmatrix=0.1206 Cmatrix=0
New Line.94743_94747 Phases=1 bus1=94743.1 bus2=94747.1 Units=km Length=0.052120798 Rmatrix=0.058 Xmatrix=0.1206 Cmatrix=0
New Line.62244_62235 Phases=1 bus1=62244.3 bus2=62235.3 Units=km Length=0.042671999 Rmatrix=0.058 Xmatrix=0.1206 Cmatrix=0
New Line.62235_62233 Phases=1 bus1=62235.3 bus2=62233.3 Units=km Length=0.052425598 Rmatrix=0.058 Xmatrix=0.1206 Cmatrix=0
New Line.1144235_1144234 Phases=1 bus1=1144235.1 bus2=1144234.1 Units=km Length=0.1161288 Rmatrix=0.058 Xmatrix=0.1206 Cmatrix=0
New Line.1144234_58418 Phases=1 bus1=1144234.1 bus2=58418.1 Units=km Length=0.1130808 Rmatrix=0.058 Xmatrix=0.1206 Cmatrix=0
New Line.39754_mdv201_1160486elb_int Phases=1 bus1=39754.2 bus2=mdv201_1160486elb_int.2 Units=km Length=0.001 Rmatrix=1.000003 Xmatrix=0.99999182 Cmatrix=0
New Line.mdv201_1160486elb_int_1160486 Phases=1 bus1=mdv201_1160486elb_int.2 bus2=1160486.2 Units=km Length=0.001524 Rmatrix=0.0001 Xmatrix=0.0001 Cmatrix=0
New Line.1160486_1160481 Phases=1 bus1=1160486.2 bus2=1160481.2 Units=km Length=0.071932798 Rmatrix=0.56003998 Xmatrix=0.24495001 Cmatrix=0
New Line.1160476_1160473 Phases=1 bus1=1160476.2 bus2=1160473.2 Units=km Length=0.060959998 Rmatrix=0.56004002 Xmatrix=0.24495003 Cmatrix=0
New Line.1160473_mdv201_15008elb_int Phases=1 bus1=1160473.2 bus2=mdv201_15008elb_int.2 Units=km Length=0.001 Rmatrix=1 Xmatrix=1 Cmatrix=0
New Line.8163_8164 Phases=3 bus1=8163.1.2.3 bus2=8164.1.2.3 Units=km Length=0.084124797 Rmatrix=[0.0981333333333    0.0401333333333    0.0401333333333| 0.0401333333333    0.0981333333333    0.0401333333333| 0.0401333333333    0.0401333333333    0.0981333333334|] Xmatrix=[0.2153             0.0947             0.0947| 0.0947             0.2153             0.0947| 0.0947             0.0947             0.2153|] Cmatrix=[0                  0                  0| 0                  0                  0| 0                  0                  0|]
New Line.8164_8165 Phases=3 bus1=8164.1.2.3 bus2=8165.1.2.3 Units=km Length=0.024993599 Rmatrix=[0.0981333333333    0.0401333333333    0.0401333333333| 0.0401333333333    0.0981333333333    0.0401333333333| 0.0401333333333    0.0401333333333    0.0981333333333|] Xmatrix=[0.2153             0.0947             0.0947| 0.0947             0.2153             0.0947| 0.0947             0.0947             0.2153|] Cmatrix=[0                  0                  0| 0                  0                  0| 0                  0                  0|]
New Line.103730_39610 Phases=1 bus1=103730.2 bus2=39610.2 Units=km Length=0.019202399 Rmatrix=0.058 Xmatrix=0.1206 Cmatrix=0
New Line.39610_39599 Phases=1 bus1=39610.2 bus2=39599.2 Units=km Length=0.057302398 Rmatrix=0.058 Xmatrix=0.1206 Cmatrix=0
New Line.835_842 Phases=1 bus1=835.1 bus2=842.1 Units=km Length=0.048767998 Rmatrix=0.058 Xmatrix=0.1206 Cmatrix=0
New Line.842_844 Phases=1 bus1=842.1 bus2=844.1 Units=km Length=0.045719999 Rmatrix=0.058 Xmatrix=0.1206 Cmatrix=0
New Line.39775_39760 Phases=1 bus1=39775.2 bus2=39760.2 Units=km Length=0.060350398 Rmatrix=0.058 Xmatrix=0.1206 Cmatrix=0
New Line.39760_39761 Phases=1 bus1=39760.2 bus2=39761.2 Units=km Length=0.046329599 Rmatrix=0.058 Xmatrix=0.1206 Cmatrix=0
New Line.15004_mdv201_1160480elb_int Phases=1 bus1=15004.2 bus2=mdv201_1160480elb_int.2 Units=km Length=0.001 Rmatrix=1.0000009 Xmatrix=0.99998477 Cmatrix=0
New Line.mdv201_1160480elb_int_1160480 Phases=1 bus1=mdv201_1160480elb_int.2 bus2=1160480.2 Units=km Length=0.001524 Rmatrix=0.0001 Xmatrix=0.0001 Cmatrix=0
New Line.1160480_1160477 Phases=1 bus1=1160480.2 bus2=1160477.2 Units=km Length=0.099059997 Rmatrix=0.56004 Xmatrix=0.24495003 Cmatrix=0
New Line.1160492_mdv201_8088elb_int Phases=1 bus1=1160492.1 bus2=mdv201_8088elb_int.1 Units=km Length=0.001 Rmatrix=1 Xmatrix=1 Cmatrix=0
New Line.mdv201_8088elb_int_8088 Phases=1 bus1=mdv201_8088elb_int.1 bus2=8088.1 Units=km Length=0.001524 Rmatrix=0.0001 Xmatrix=0.0001 Cmatrix=0
New Line.8088_mdv201_1160491elb_int Phases=1 bus1=8088.1 bus2=mdv201_1160491elb_int.1 Units=km Length=0.001 Rmatrix=0.99998807 Xmatrix=0.99998059 Cmatrix=0
New Line.829_834 Phases=3 bus1=829.1.2.3 bus2=834.1.2.3 Units=km Length=0.088391997 Rmatrix=[0.0981333333333    0.0401333333333    0.0401333333333| 0.0401333333333    0.0981333333333    0.0401333333333| 0.0401333333333    0.0401333333333    0.0981333333333|] Xmatrix=[0.2153             0.0947             0.0947| 0.0947             0.2153             0.0947| 0.0947             0.0947             0.2153|] Cmatrix=[0                  0                  0| 0                  0                  0| 0                  0                  0|]
New Line.834_841 Phases=3 bus1=834.1.2.3 bus2=841.1.2.3 Units=km Length=0.076809598 Rmatrix=[0.0981333333335    0.0401333333334    0.0401333333334| 0.0401333333334    0.0981333333334    0.0401333333334| 0.0401333333334    0.0401333333334    0.0981333333335|] Xmatrix=[         0.2153             0.0947    0.0946999999999|          0.0947             0.2153             0.0947| 0.0946999999999             0.0947             0.2153|] Cmatrix=[0                  0                  0| 0                  0                  0| 0                  0                  0|]
New Line.15005_mdv201_1160478elb_int Phases=1 bus1=15005.2 bus2=mdv201_1160478elb_int.2 Units=km Length=0.001 Rmatrix=0.99998665 Xmatrix=1.0000039 Cmatrix=0
New Line.mdv201_1160478elb_int_1160478 Phases=1 bus1=mdv201_1160478elb_int.2 bus2=1160478.2 Units=km Length=0.001524 Rmatrix=0.0001 Xmatrix=0.0001 Cmatrix=0
New Line.1160478_1160469 Phases=1 bus1=1160478.2 bus2=1160469.2 Units=km Length=0.055778398 Rmatrix=0.56004002 Xmatrix=0.24495 Cmatrix=0
New Line.44582_8160 Phases=3 bus1=44582.1.2.3 bus2=8160.1.2.3 Units=km Length=0.025907999 Rmatrix=[0.0981333333334    0.0401333333333    0.0401333333332| 0.0401333333333    0.0981333333334    0.0401333333332| 0.0401333333332    0.0401333333332     0.098133333333|] Xmatrix=[0.2153             0.0947             0.0947| 0.0947             0.2153             0.0947| 0.0947             0.0947             0.2153|] Cmatrix=[0                  0                  0| 0                  0                  0| 0                  0                  0|]
New Line.8160_44583 Phases=3 bus1=8160.1.2.3 bus2=44583.1.2.3 Units=km Length=0.033223199 Rmatrix=[0.0981333333334    0.0401333333334    0.0401333333334| 0.0401333333334    0.0981333333331    0.0401333333332| 0.0401333333334    0.0401333333332    0.0981333333335|] Xmatrix=[         0.2153    0.0947000000001             0.0947| 0.0947000000001             0.2153             0.0947|          0.0947             0.0947             0.2153|] Cmatrix=[0                  0                  0| 0                  0                  0| 0                  0                  0|]
New Line.8160_104355 Phases=1 bus1=8160.2 bus2=104355.2 Units=km Length=0.001524 Rmatrix=0.058 Xmatrix=0.1206 Cmatrix=0
New Line.8160_104356 Phases=1 bus1=8160.3 bus2=104356.3 Units=km Length=0.001524 Rmatrix=0.058 Xmatrix=0.1206 Cmatrix=0
New Line.89783_89791 Phases=1 bus1=89783.3 bus2=89791.3 Units=km Length=0.052120798 Rmatrix=0.058 Xmatrix=0.1206 Cmatrix=0
New Line.89791_89813 Phases=1 bus1=89791.3 bus2=89813.3 Units=km Length=0.025603199 Rmatrix=0.058 Xmatrix=0.1206 Cmatrix=0
New Line.6584_99422 Phases=1 bus1=6584.1 bus2=99422.1 Units=km Length=0.001524 Rmatrix=0.058 Xmatrix=0.1206 Cmatrix=0
New Line.6584_6594 Phases=3 bus1=6584.1.2.3 bus2=6594.1.2.3 Units=km Length=0.059131198 Rmatrix=[0.0981333333337    0.0401333333335    0.0401333333335| 0.0401333333335    0.0981333333333    0.0401333333333| 0.0401333333335    0.0401333333333    0.0981333333333|] Xmatrix=[         0.2153    0.0947000000002    0.0947000000002| 0.0947000000002             0.2153    0.0946999999999| 0.0947000000002    0.0946999999999             0.2153|] Cmatrix=[0                  0                  0| 0                  0                  0| 0                  0                  0|]
New Line.99422_6595 Phases=1 bus1=99422.1 bus2=6595.1 Units=km Length=0.021031199 Rmatrix=0.058 Xmatrix=0.1206 Cmatrix=0
New Line.8113_8124 Phases=3 bus1=8113.1.2.3 bus2=8124.1.2.3 Units=km Length=0.064312798 Rmatrix=[0.0981333333334    0.0401333333334    0.0401333333334| 0.0401333333334    0.0981333333334    0.0401333333334| 0.0401333333334    0.0401333333334    0.0981333333336|] Xmatrix=[         0.2153    0.0946999999997             0.0947| 0.0946999999997             0.2153             0.0947|          0.0947             0.0947             0.2153|] Cmatrix=[0                  0                  0| 0                  0                  0| 0                  0                  0|]
New Line.8124_8126 Phases=3 bus1=8124.1.2.3 bus2=8126.1.2.3 Units=km Length=0.068579998 Rmatrix=[0.0981333333333    0.0401333333333    0.0401333333333| 0.0401333333333    0.0981333333333    0.0401333333333| 0.0401333333333    0.0401333333333    0.0981333333333|] Xmatrix=[         0.2153             0.0947    0.0947000000001|          0.0947             0.2153             0.0947| 0.0947000000001             0.0947             0.2153|] Cmatrix=[0                  0                  0| 0                  0                  0| 0                  0                  0|]
New Line.8124_1144243 Phases=1 bus1=8124.3 bus2=1144243.3 Units=km Length=0.001524 Rmatrix=0.058 Xmatrix=0.1206 Cmatrix=0
New Line.14880_63707 Phases=3 bus1=14880.1.2.3 bus2=63707.1.2.3 Units=km Length=0.058826398 Rmatrix=[0.0981333333333    0.0401333333333    0.0401333333333| 0.0401333333333    0.0981333333333    0.0401333333333| 0.0401333333333    0.0401333333333    0.0981333333333|] Xmatrix=[0.2153             0.0947             0.0947| 0.0947             0.2153             0.0947| 0.0947             0.0947             0.2153|] Cmatrix=[0                  0                  0| 0                  0                  0| 0                  0                  0|]
New Line.63707_8177 Phases=3 bus1=63707.1.2.3 bus2=8177.1.2.3 Units=km Length=0.071018398 Rmatrix=[0.0981333333333    0.0401333333333    0.0401333333333| 0.0401333333333    0.0981333333333    0.0401333333333| 0.0401333333333    0.0401333333333    0.0981333333333|] Xmatrix=[0.2153             0.0947             0.0947| 0.0947             0.2153             0.0947| 0.0947             0.0947             0.2153|] Cmatrix=[0                  0                  0| 0                  0                  0| 0                  0                  0|]
New Line.74449_74450 Phases=1 bus1=74449.3 bus2=74450.3 Units=km Length=0.047243998 Rmatrix=0.058 Xmatrix=0.1206 Cmatrix=0
New Line.14989_100494 Phases=1 bus1=14989.2 bus2=100494.2 Units=km Length=0.001524 Rmatrix=0.058 Xmatrix=0.1206 Cmatrix=0
New Line.14989_14994 Phases=1 bus1=14989.2 bus2=14994.2 Units=km Length=0.095097597 Rmatrix=0.058 Xmatrix=0.1206 Cmatrix=0
New Line.100494_14990 Phases=1 bus1=100494.2 bus2=14990.2 Units=km Length=0.1072896 Rmatrix=0.058 Xmatrix=0.1206 Cmatrix=0
New Line.63683_107110 Phases=2 bus1=63683.1.3 bus2=107110.1.3 Units=km Length=0.001524 Rmatrix=[0.0981333333332    0.0401333333333| 0.0401333333333    0.0981333333334|] Xmatrix=[0.2153             0.0947| 0.0947             0.2153|] Cmatrix=[0                  0| 0                  0|]
New Line.107110_63666 Phases=2 bus1=107110.1.3 bus2=63666.1.3 Units=km Length=0.075285598 Rmatrix=[0.0981333333335    0.0401333333333| 0.0401333333333    0.0981333333333|] Xmatrix=[         0.2153    0.0947000000001| 0.0947000000001             0.2153|] Cmatrix=[0                  0| 0                  0|]
New Line.1144242_8121 Phases=1 bus1=1144242.3 bus2=8121.3 Units=km Length=0.049682398 Rmatrix=0.058 Xmatrix=0.1206 Cmatrix=0
New Line.8121_8115 Phases=1 bus1=8121.3 bus2=8115.3 Units=km Length=0.045415199 Rmatrix=0.058 Xmatrix=0.1206 Cmatrix=0
New Line.8121_8125 Phases=1 bus1=8121.3 bus2=8125.3 Units=km Length=0.054559198 Rmatrix=0.058 Xmatrix=0.1206 Cmatrix=0
New Line.63668_63671 Phases=1 bus1=63668.3 bus2=63671.3 Units=km Length=0.046939198 Rmatrix=0.058 Xmatrix=0.1206 Cmatrix=0
New Line.63668_63669 Phases=1 bus1=63668.3 bus2=63669.3 Units=km Length=0.044500799 Rmatrix=0.058 Xmatrix=0.1206 Cmatrix=0
New Line.63671_63672 Phases=1 bus1=63671.3 bus2=63672.3 Units=km Length=0.049682398 Rmatrix=0.058 Xmatrix=0.1206 Cmatrix=0
New Line.89784_89781 Phases=1 bus1=89784.3 bus2=89781.3 Units=km Length=0.052730398 Rmatrix=0.058 Xmatrix=0.1206 Cmatrix=0
New Line.89781_62308 Phases=1 bus1=89781.3 bus2=62308.3 Units=km Length=0.050901598 Rmatrix=0.058 Xmatrix=0.1206 Cmatrix=0
New Line.89781_62310 Phases=1 bus1=89781.3 bus2=62310.3 Units=km Length=0.072237598 Rmatrix=0.058 Xmatrix=0.1206 Cmatrix=0
New Line.39734_39751 Phases=1 bus1=39734.1 bus2=39751.1 Units=km Length=0.068579998 Rmatrix=0.058 Xmatrix=0.1206 Cmatrix=0
New Line.39751_74443 Phases=1 bus1=39751.1 bus2=74443.1 Units=km Length=0.056692798 Rmatrix=0.058 Xmatrix=0.1206 Cmatrix=0
New Line.63657_63658 Phases=3 bus1=63657.1.2.3 bus2=63658.1.2.3 Units=km Length=0.038099999 Rmatrix=[0.0981333333333    0.0401333333333    0.0401333333333| 0.0401333333333    0.0981333333333    0.0401333333333| 0.0401333333333    0.0401333333333    0.0981333333333|] Xmatrix=[0.2153             0.0947             0.0947| 0.0947             0.2153             0.0947| 0.0947             0.0947             0.2153|] Cmatrix=[0                  0                  0| 0                  0                  0| 0                  0                  0|]
New Line.63657_63656 Phases=3 bus1=63657.1.2.3 bus2=63656.1.2.3 Units=km Length=0.047243998 Rmatrix=[0.0981333333335    0.0401333333334    0.0401333333333| 0.0401333333334    0.0981333333333    0.0401333333333| 0.0401333333333    0.0401333333333    0.0981333333332|] Xmatrix=[         0.2153    0.0946999999999    0.0947000000002| 0.0946999999999             0.2153    0.0947000000002| 0.0947000000002    0.0947000000002             0.2153|] Cmatrix=[0                  0                  0| 0                  0                  0| 0                  0                  0|]
New Line.63658_63659 Phases=3 bus1=63658.1.2.3 bus2=63659.1.2.3 Units=km Length=0.053949598 Rmatrix=[0.0981333333333    0.0401333333335    0.0401333333333| 0.0401333333335    0.0981333333337    0.0401333333333| 0.0401333333333    0.0401333333333    0.0981333333333|] Xmatrix=[         0.2153    0.0946999999992    0.0946999999999| 0.0946999999992     0.215299999998    0.0946999999999| 0.0946999999999    0.0946999999999             0.2153|] Cmatrix=[0                  0                  0| 0                  0                  0| 0                  0                  0|]
New Line.74445_74448 Phases=1 bus1=74445.2 bus2=74448.2 Units=km Length=0.044805599 Rmatrix=0.058 Xmatrix=0.1206 Cmatrix=0
New Line.74448_74451 Phases=1 bus1=74448.2 bus2=74451.2 Units=km Length=0.049377598 Rmatrix=0.058 Xmatrix=0.1206 Cmatrix=0
New Line.1012641_1012643 Phases=1 bus1=1012641.3 bus2=1012643.3 Units=km Length=0.001524 Rmatrix=0.058 Xmatrix=0.1206 Cmatrix=0
New Line.1012643_1160453 Phases=1 bus1=1012643.3 bus2=1160453.3 Units=km Length=0.099364797 Rmatrix=0.56004 Xmatrix=0.24495 Cmatrix=0
New Line.39570_39569 Phases=1 bus1=39570.1 bus2=39569.1 Units=km Length=0.065227198 Rmatrix=0.058 Xmatrix=0.1206 Cmatrix=0
New Line.39569_39574 Phases=1 bus1=39569.1 bus2=39574.1 Units=km Length=0.10668 Rmatrix=0.058 Xmatrix=0.1206 Cmatrix=0
New Line.14858_14869 Phases=1 bus1=14858.1 bus2=14869.1 Units=km Length=0.001524 Rmatrix=0.058 Xmatrix=0.1206 Cmatrix=0
New Line.14869_14870 Phases=1 bus1=14869.1 bus2=14870.1 Units=km Length=0.080467197 Rmatrix=0.058 Xmatrix=0.1206 Cmatrix=0
New Line.89796_89790 Phases=1 bus1=89796.3 bus2=89790.3 Units=km Length=0.091439997 Rmatrix=0.058 Xmatrix=0.1206 Cmatrix=0
New Line.89790_89779 Phases=1 bus1=89790.3 bus2=89779.3 Units=km Length=0.10668 Rmatrix=0.058 Xmatrix=0.1206 Cmatrix=0
New Line.28271_28272 Phases=1 bus1=28271.3 bus2=28272.3 Units=km Length=0.070103998 Rmatrix=0.058 Xmatrix=0.1206 Cmatrix=0
New Line.28271_28273 Phases=1 bus1=28271.3 bus2=28273.3 Units=km Length=0.049682398 Rmatrix=0.058 Xmatrix=0.1206 Cmatrix=0
New Line.69478_69477 Phases=3 bus1=69478.1.2.3 bus2=69477.1.2.3 Units=km Length=0.1078992 Rmatrix=[0.0981333333333    0.0401333333333    0.0401333333333| 0.0401333333333    0.0981333333333    0.0401333333333| 0.0401333333333    0.0401333333333    0.0981333333333|] Xmatrix=[ 0.215300000003    0.0947000000011    0.0947000000011| 0.0947000000011             0.2153             0.0947| 0.0947000000011             0.0947             0.2153|] Cmatrix=[0                  0                  0| 0                  0                  0| 0                  0                  0|]
New Line.69478_107993 Phases=1 bus1=69478.1 bus2=107993.1 Units=km Length=0.001524 Rmatrix=0.058 Xmatrix=0.1206 Cmatrix=0
New Line.69477_1127424 Phases=3 bus1=69477.1.2.3 bus2=1127424.1.2.3 Units=km Length=0.092659197 Rmatrix=[0.0981333333335    0.0401333333333    0.0401333333333| 0.0401333333333     0.098133333333    0.0401333333333| 0.0401333333333    0.0401333333333    0.0981333333333|] Xmatrix=[0.215300000001             0.0947             0.0947|         0.0947             0.2153    0.0947000000001|         0.0947    0.0947000000001             0.2153|] Cmatrix=[0                  0                  0| 0                  0                  0| 0                  0                  0|]
New Line.8175_8176 Phases=1 bus1=8175.3 bus2=8176.3 Units=km Length=0.046634399 Rmatrix=0.058 Xmatrix=0.1206 Cmatrix=0
New Line.8176_8180 Phases=1 bus1=8176.3 bus2=8180.3 Units=km Length=0.021031199 Rmatrix=0.058 Xmatrix=0.1206 Cmatrix=0
New Line.8184_1144230 Phases=1 bus1=8184.1 bus2=1144230.1 Units=km Length=0.001524 Rmatrix=0.058 Xmatrix=0.1206 Cmatrix=0
New Line.8184_14841 Phases=3 bus1=8184.1.2.3 bus2=14841.1.2.3 Units=km Length=0.068884798 Rmatrix=[0.0981333333334    0.0401333333334    0.0401333333334| 0.0401333333334    0.0981333333334    0.0401333333334| 0.0401333333334    0.0401333333334    0.0981333333333|] Xmatrix=[         0.2153    0.0947000000001    0.0947000000001| 0.0947000000001             0.2153             0.0947| 0.0947000000001             0.0947             0.2153|] Cmatrix=[0                  0                  0| 0                  0                  0| 0                  0                  0|]
New Line.1144230_8185 Phases=1 bus1=1144230.1 bus2=8185.1 Units=km Length=0.042367199 Rmatrix=0.058 Xmatrix=0.1206 Cmatrix=0
New Line.1144230_1144231 Phases=1 bus1=1144230.1 bus2=1144231.1 Units=km Length=0.031089599 Rmatrix=0.058 Xmatrix=0.1206 Cmatrix=0
New Line.39595_39582 Phases=3 bus1=39595.1.2.3 bus2=39582.1.2.3 Units=km Length=0.082600797 Rmatrix=[0.0981333333333    0.0401333333335    0.0401333333334| 0.0401333333335    0.0981333333336    0.0401333333334| 0.0401333333334    0.0401333333334    0.0981333333334|] Xmatrix=[         0.2153    0.0947000000002    0.0946999999999| 0.0947000000002     0.215300000001    0.0946999999997| 0.0946999999999    0.0946999999997             0.2153|] Cmatrix=[0                  0                  0| 0                  0                  0| 0                  0                  0|]
New Line.39582_103728 Phases=1 bus1=39582.1 bus2=103728.1 Units=km Length=0.001524 Rmatrix=0.058 Xmatrix=0.1206 Cmatrix=0
New Line.39582_39575 Phases=3 bus1=39582.1.2.3 bus2=39575.1.2.3 Units=km Length=0.078638397 Rmatrix=[0.0981333333335    0.0401333333335    0.0401333333335| 0.0401333333335    0.0981333333327    0.0401333333331| 0.0401333333335    0.0401333333331    0.0981333333334|] Xmatrix=[ 0.215299999997    0.0946999999987    0.0946999999988| 0.0946999999987     0.215299999999    0.0946999999997| 0.0946999999988    0.0946999999997             0.2153|] Cmatrix=[0                  0                  0| 0                  0                  0| 0                  0                  0|]
New Line.39582_103729 Phases=1 bus1=39582.2 bus2=103729.2 Units=km Length=0.001524 Rmatrix=0.058 Xmatrix=0.1206 Cmatrix=0
New Line.46385_46386 Phases=1 bus1=46385.2 bus2=46386.2 Units=km Length=0.042671999 Rmatrix=0.058 Xmatrix=0.1206 Cmatrix=0
New Line.46386_88660 Phases=1 bus1=46386.2 bus2=88660.2 Units=km Length=0.071932798 Rmatrix=0.058 Xmatrix=0.1206 Cmatrix=0
New Line.46386_46387 Phases=1 bus1=46386.2 bus2=46387.2 Units=km Length=0.071018398 Rmatrix=0.058 Xmatrix=0.1206 Cmatrix=0
New Line.106884_62244 Phases=1 bus1=106884.3 bus2=62244.3 Units=km Length=0.030784799 Rmatrix=0.058 Xmatrix=0.1206 Cmatrix=0
New Line.1160493_mdv201_8075elb_int Phases=1 bus1=1160493.1 bus2=mdv201_8075elb_int.1 Units=km Length=0.001 Rmatrix=1 Xmatrix=1 Cmatrix=0
New Line.mdv201_8075elb_int_8075 Phases=1 bus1=mdv201_8075elb_int.1 bus2=8075.1 Units=km Length=0.001524 Rmatrix=0.0001 Xmatrix=0.0001 Cmatrix=0
New Line.8075_mdv201_1160494elb_int Phases=1 bus1=8075.1 bus2=mdv201_1160494elb_int.1 Units=km Length=0.001 Rmatrix=0.99999813 Xmatrix=0.99997353 Cmatrix=0
New Line.69460_mdv201_107997elb_int Phases=1 bus1=69460.1 bus2=mdv201_107997elb_int.1 Units=km Length=0.001 Rmatrix=1 Xmatrix=1 Cmatrix=0
New Line.mdv201_107997elb_int_107997 Phases=1 bus1=mdv201_107997elb_int.1 bus2=107997.1 Units=km Length=0.001524 Rmatrix=0.0001 Xmatrix=0.0001 Cmatrix=0
New Line.1160461_8100 Phases=1 bus1=1160461.1 bus2=8100.1 Units=km Length=0.1237488 Rmatrix=0.56004 Xmatrix=0.24495 Cmatrix=0
New Line.8100_1160454 Phases=1 bus1=8100.1 bus2=1160454.1 Units=km Length=0.018897599 Rmatrix=0.56004 Xmatrix=0.24495 Cmatrix=0
New Line.8100_1160503 Phases=1 bus1=8100.1 bus2=1160503.1 Units=km Length=0.1255776 Rmatrix=0.56004 Xmatrix=0.24495 Cmatrix=0
New Line.39776_33824 Phases=1 bus1=39776.3 bus2=33824.3 Units=km Length=0.066751198 Rmatrix=0.058 Xmatrix=0.1206 Cmatrix=0
New Line.39776_39772 Phases=1 bus1=39776.3 bus2=39772.3 Units=km Length=0.024079199 Rmatrix=0.058 Xmatrix=0.1206 Cmatrix=0
New Line.33824_14979 Phases=1 bus1=33824.3 bus2=14979.3 Units=km Length=0.056997598 Rmatrix=0.058 Xmatrix=0.1206 Cmatrix=0
New Line.1140227_14873 Phases=1 bus1=1140227.1 bus2=14873.1 Units=km Length=0.040843199 Rmatrix=0.058 Xmatrix=0.1206 Cmatrix=0
New Line.14873_14875 Phases=1 bus1=14873.1 bus2=14875.1 Units=km Length=0.031699199 Rmatrix=0.058 Xmatrix=0.1206 Cmatrix=0
New Line.1160488_mdv201_62249elb_int Phases=1 bus1=1160488.2 bus2=mdv201_62249elb_int.2 Units=km Length=0.001 Rmatrix=1 Xmatrix=1 Cmatrix=0
New Line.mdv201_62249elb_int_62249 Phases=1 bus1=mdv201_62249elb_int.2 bus2=62249.2 Units=km Length=0.001524 Rmatrix=0.0001 Xmatrix=0.0001 Cmatrix=0
New Line.107106_63634 Phases=1 bus1=107106.2 bus2=63634.2 Units=km Length=0.052120798 Rmatrix=0.058 Xmatrix=0.1206 Cmatrix=0
New Line.63634_63633 Phases=1 bus1=63634.2 bus2=63633.2 Units=km Length=0.057911998 Rmatrix=0.058 Xmatrix=0.1206 Cmatrix=0
New Line.1160494_1160467 Phases=1 bus1=1160494.1 bus2=1160467.1 Units=km Length=0.041452799 Rmatrix=0.56003996 Xmatrix=0.24494999 Cmatrix=0
New Line.1160467_mdv201_8076elb_int Phases=1 bus1=1160467.1 bus2=mdv201_8076elb_int.1 Units=km Length=0.001 Rmatrix=1 Xmatrix=1 Cmatrix=0
New Line.8185_8186 Phases=1 bus1=8185.1 bus2=8186.1 Units=km Length=0.082600797 Rmatrix=0.058 Xmatrix=0.1206 Cmatrix=0
New Line.796_791 Phases=3 bus1=796.1.2.3 bus2=791.1.2.3 Units=km Length=0.059740798 Rmatrix=[0.0981333333327    0.0401333333333    0.0401333333333| 0.0401333333333    0.0981333333329    0.0401333333333| 0.0401333333333    0.0401333333333    0.0981333333334|] Xmatrix=[ 0.215299999999    0.0946999999999    0.0947000000001| 0.0946999999999             0.2153    0.0947000000001| 0.0947000000001    0.0947000000001     0.215299999999|] Cmatrix=[0                  0                  0| 0                  0                  0| 0                  0                  0|]
New Line.796_mdv202_osw_796_int Phases=3 bus1=796.1.2.3 bus2=mdv202_osw_796_int.1.2.3 Units=km Length=0.001524 Rmatrix=[0.0981333333332    0.0401333333333    0.0401333333333| 0.0401333333333    0.0981333333333    0.0401333333333| 0.0401333333333    0.0401333333333    0.0981333333334|] Xmatrix=[         0.2153             0.0947    0.0947000000001|          0.0947             0.2153             0.0947| 0.0947000000001             0.0947             0.2153|] Cmatrix=[0                  0                  0| 0                  0                  0| 0                  0                  0|]
New Line.791_788 Phases=3 bus1=791.1.2.3 bus2=788.1.2.3 Units=km Length=0.066751198 Rmatrix=[0.0981333333333    0.0401333333333    0.0401333333333| 0.0401333333333    0.0981333333333    0.0401333333333| 0.0401333333333    0.0401333333333    0.0981333333333|] Xmatrix=[0.2153             0.0947             0.0947| 0.0947             0.2153             0.0947| 0.0947             0.0947             0.2153|] Cmatrix=[0                  0                  0| 0                  0                  0| 0                  0                  0|]
New Line.62306_62303 Phases=1 bus1=62306.3 bus2=62303.3 Units=km Length=0.059740798 Rmatrix=0.058 Xmatrix=0.1206 Cmatrix=0
New Line.62303_62304 Phases=1 bus1=62303.3 bus2=62304.3 Units=km Length=0.060045598 Rmatrix=0.058 Xmatrix=0.1206 Cmatrix=0
New Line.14839_100478 Phases=1 bus1=14839.3 bus2=100478.3 Units=km Length=0.001524 Rmatrix=0.058 Xmatrix=0.1206 Cmatrix=0
New Line.100478_14846 Phases=1 bus1=100478.3 bus2=14846.3 Units=km Length=0.086258397 Rmatrix=0.058 Xmatrix=0.1206 Cmatrix=0
New Line.58441_58446 Phases=3 bus1=58441.1.2.3 bus2=58446.1.2.3 Units=km Length=0.043586399 Rmatrix=[0.0981333333333    0.0401333333333    0.0401333333332| 0.0401333333333    0.0981333333333    0.0401333333332| 0.0401333333332    0.0401333333332    0.0981333333336|] Xmatrix=[         0.2153    0.0946999999999    0.0946999999998| 0.0946999999999             0.2153             0.0947| 0.0946999999998             0.0947     0.215300000001|] Cmatrix=[0                  0                  0| 0                  0                  0| 0                  0                  0|]
New Line.58441_69647 Phases=1 bus1=58441.2 bus2=69647.2 Units=km Length=0.103632 Rmatrix=0.058 Xmatrix=0.1206 Cmatrix=0
New Line.58441_1012406 Phases=1 bus1=58441.3 bus2=1012406.3 Units=km Length=0.001524 Rmatrix=0.058 Xmatrix=0.1206 Cmatrix=0
New Line.58446_28285 Phases=3 bus1=58446.1.2.3 bus2=28285.1.2.3 Units=km Length=0.053644798 Rmatrix=[0.0981333333333    0.0401333333333    0.0401333333333| 0.0401333333333    0.0981333333333    0.0401333333333| 0.0401333333333    0.0401333333333    0.0981333333333|] Xmatrix=[0.2153             0.0947             0.0947| 0.0947             0.2153             0.0947| 0.0947             0.0947             0.2153|] Cmatrix=[0                  0                  0| 0                  0                  0| 0                  0                  0|]
New Line.112112_52515 Phases=1 bus1=112112.2 bus2=52515.2 Units=km Length=0.024383999 Rmatrix=0.058 Xmatrix=0.1206 Cmatrix=0
New Line.52515_52516 Phases=1 bus1=52515.2 bus2=52516.2 Units=km Length=0.033223199 Rmatrix=0.058 Xmatrix=0.1206 Cmatrix=0
New Line.846_98795 Phases=3 bus1=846.1.2.3 bus2=98795.1.2.3 Units=km Length=0.001524 Rmatrix=[0.0981333333333    0.0401333333333    0.0401333333333| 0.0401333333333    0.0981333333333    0.0401333333333| 0.0401333333333    0.0401333333333    0.0981333333333|] Xmatrix=[0.2153             0.0947             0.0947| 0.0947             0.2153             0.0947| 0.0947             0.0947             0.2153|] Cmatrix=[0                  0                  0| 0                  0                  0| 0                  0                  0|]
New Line.846_28199 Phases=3 bus1=846.1.2.3 bus2=28199.1.2.3 Units=km Length=0.063398398 Rmatrix=[0.0981333333333    0.0401333333333    0.0401333333333| 0.0401333333333    0.0981333333333    0.0401333333333| 0.0401333333333    0.0401333333333    0.0981333333332|] Xmatrix=[0.215300000001             0.0947             0.0947|         0.0947     0.215300000001             0.0947|         0.0947             0.0947             0.2153|] Cmatrix=[0                  0                  0| 0                  0                  0| 0                  0                  0|]
New Line.98795_847 Phases=3 bus1=98795.1.2.3 bus2=847.1.2.3 Units=km Length=0.022250399 Rmatrix=[0.0981333333334    0.0401333333333    0.0401333333334| 0.0401333333333    0.0981333333333    0.0401333333333| 0.0401333333334    0.0401333333333    0.0981333333333|] Xmatrix=[0.2153             0.0947             0.0947| 0.0947     0.215300000001             0.0947| 0.0947             0.0947             0.2153|] Cmatrix=[0                  0                  0| 0                  0                  0| 0                  0                  0|]
New Line.39623_39602 Phases=1 bus1=39623.2 bus2=39602.2 Units=km Length=0.067970398 Rmatrix=0.058 Xmatrix=0.1206 Cmatrix=0
New Line.39602_39603 Phases=1 bus1=39602.2 bus2=39603.2 Units=km Length=0.051511198 Rmatrix=0.058 Xmatrix=0.1206 Cmatrix=0
New Line.56777_56778 Phases=3 bus1=56777.1.2.3 bus2=56778.1.2.3 Units=km Length=0.102108 Rmatrix=[0.0981333333336    0.0401333333334    0.0401333333334| 0.0401333333334    0.0981333333334    0.0401333333334| 0.0401333333334    0.0401333333334    0.0981333333334|] Xmatrix=[         0.2153             0.0947    0.0947000000001|          0.0947             0.2153             0.0947| 0.0947000000001             0.0947             0.2153|] Cmatrix=[0                  0                  0| 0                  0                  0| 0                  0                  0|]
New Line.56778_1149717 Phases=3 bus1=56778.1.2.3 bus2=1149717.1.2.3 Units=km Length=0.001524 Rmatrix=[0.0981333333332    0.0401333333333    0.0401333333333| 0.0401333333333    0.0981333333334    0.0401333333333| 0.0401333333333    0.0401333333333    0.0981333333333|] Xmatrix=[0.2153             0.0947             0.0947| 0.0947             0.2153             0.0947| 0.0947             0.0947             0.2153|] Cmatrix=[0                  0                  0| 0                  0                  0| 0                  0                  0|]
New Line.56778_56781 Phases=3 bus1=56778.1.2.3 bus2=56781.1.2.3 Units=km Length=0.086258397 Rmatrix=[0.0981333333357    0.0401333333389     0.040133333335| 0.0401333333389    0.0981333333454    0.0401333333372|  0.040133333335    0.0401333333372     0.098133333335|] Xmatrix=[ 0.215299999997     0.094699999987    0.0946999999981|  0.094699999987      0.21529999997    0.0946999999958| 0.0946999999981    0.0946999999958     0.215299999997|] Cmatrix=[0                  0                  0| 0                  0                  0| 0                  0                  0|]
New Line.44586_62239 Phases=3 bus1=44586.1.2.3 bus2=62239.1.2.3 Units=km Length=0.031394399 Rmatrix=[0.0981333333333    0.0401333333333    0.0401333333333| 0.0401333333333    0.0981333333333    0.0401333333333| 0.0401333333333    0.0401333333333    0.0981333333334|] Xmatrix=[0.2153             0.0947             0.0947| 0.0947             0.2153             0.0947| 0.0947             0.0947             0.2153|] Cmatrix=[0                  0                  0| 0                  0                  0| 0                  0                  0|]
New Line.44586_62231 Phases=1 bus1=44586.3 bus2=62231.3 Units=km Length=0.017983199 Rmatrix=0.058 Xmatrix=0.1206 Cmatrix=0
New Line.62239_62242 Phases=3 bus1=62239.1.2.3 bus2=62242.1.2.3 Units=km Length=0.060959998 Rmatrix=[0.0981333333333    0.0401333333332    0.0401333333333| 0.0401333333332     0.098133333333    0.0401333333332| 0.0401333333333    0.0401333333332    0.0981333333334|] Xmatrix=[         0.2153    0.0946999999993    0.0947000000007| 0.0946999999993     0.215299999999    0.0947000000007| 0.0947000000007    0.0947000000007     0.215300000002|] Cmatrix=[0                  0                  0| 0                  0                  0| 0                  0                  0|]
New Line.46394_46393 Phases=3 bus1=46394.1.2.3 bus2=46393.1.2.3 Units=km Length=0.074066398 Rmatrix=[0.0981333333333    0.0401333333332    0.0401333333333| 0.0401333333332    0.0981333333335    0.0401333333334| 0.0401333333333    0.0401333333334    0.0981333333333|] Xmatrix=[0.2153             0.0947             0.0947| 0.0947             0.2153             0.0947| 0.0947             0.0947             0.2153|] Cmatrix=[0                  0                  0| 0                  0                  0| 0                  0                  0|]
New Line.46394_46395 Phases=3 bus1=46394.1.2.3 bus2=46395.1.2.3 Units=km Length=0.096011997 Rmatrix=[0.0981333333334    0.0401333333333    0.0401333333333| 0.0401333333333    0.0981333333336    0.0401333333334| 0.0401333333333    0.0401333333334    0.0981333333333|] Xmatrix=[         0.2153    0.0946999999999    0.0946999999999| 0.0946999999999     0.215300000001    0.0947000000005| 0.0946999999999    0.0947000000005             0.2153|] Cmatrix=[0                  0                  0| 0                  0                  0| 0                  0                  0|]
New Line.46394_1144237 Phases=1 bus1=46394.2 bus2=1144237.2 Units=km Length=0.001524 Rmatrix=0.058 Xmatrix=0.1206 Cmatrix=0
New Line.1144254_28246 Phases=1 bus1=1144254.2 bus2=28246.2 Units=km Length=0.026212799 Rmatrix=0.058 Xmatrix=0.1206 Cmatrix=0
New Line.28246_14851 Phases=1 bus1=28246.2 bus2=14851.2 Units=km Length=0.096621597 Rmatrix=0.058 Xmatrix=0.1206 Cmatrix=0
New Line.14996_39771 Phases=1 bus1=14996.2 bus2=39771.2 Units=km Length=0.049987198 Rmatrix=0.058 Xmatrix=0.1206 Cmatrix=0
New Line.39771_39752 Phases=1 bus1=39771.2 bus2=39752.2 Units=km Length=0.050596798 Rmatrix=0.058 Xmatrix=0.1206 Cmatrix=0
New Line.74432_108776 Phases=1 bus1=74432.1 bus2=108776.1 Units=km Length=0.001524 Rmatrix=0.058 Xmatrix=0.1206 Cmatrix=0
New Line.108776_74434 Phases=1 bus1=108776.1 bus2=74434.1 Units=km Length=0.1024128 Rmatrix=0.058 Xmatrix=0.1206 Cmatrix=0
New Line.1160489_mdv201_795elb_int Phases=1 bus1=1160489.1 bus2=mdv201_795elb_int.1 Units=km Length=0.001 Rmatrix=1 Xmatrix=1 Cmatrix=0
New Line.mdv201_795elb_int_795 Phases=1 bus1=mdv201_795elb_int.1 bus2=795.1 Units=km Length=0.001524 Rmatrix=0.0001 Xmatrix=0.0001 Cmatrix=0
New Line.14879_14880 Phases=3 bus1=14879.1.2.3 bus2=14880.1.2.3 Units=km Length=0.071018398 Rmatrix=[0.0981333333332    0.0401333333333    0.0401333333333| 0.0401333333333    0.0981333333333    0.0401333333333| 0.0401333333333    0.0401333333333    0.0981333333334|] Xmatrix=[         0.2153    0.0947000000002    0.0947000000002| 0.0947000000002             0.2153             0.0947| 0.0947000000002             0.0947             0.2153|] Cmatrix=[0                  0                  0| 0                  0                  0| 0                  0                  0|]
New Line.14879_1140227 Phases=1 bus1=14879.1 bus2=1140227.1 Units=km Length=0.001524 Rmatrix=0.058 Xmatrix=0.1206 Cmatrix=0
New Line.8099_8103 Phases=1 bus1=8099.3 bus2=8103.3 Units=km Length=0.038099999 Rmatrix=0.058 Xmatrix=0.1206 Cmatrix=0
New Line.8103_8104 Phases=1 bus1=8103.3 bus2=8104.3 Units=km Length=0.050596798 Rmatrix=0.058 Xmatrix=0.1206 Cmatrix=0
New Line.1000983_56768 Phases=1 bus1=1000983.1 bus2=56768.1 Units=km Length=0.030784799 Rmatrix=0.058 Xmatrix=0.1206 Cmatrix=0
New Line.56768_56770 Phases=1 bus1=56768.1 bus2=56770.1 Units=km Length=0.045415199 Rmatrix=0.058 Xmatrix=0.1206 Cmatrix=0
New Line.62265_62262 Phases=3 bus1=62265.1.2.3 bus2=62262.1.2.3 Units=km Length=0.060959998 Rmatrix=[0.0981333333333    0.0401333333333    0.0401333333334| 0.0401333333333    0.0981333333333    0.0401333333334| 0.0401333333334    0.0401333333334    0.0981333333334|] Xmatrix=[         0.2153             0.0947    0.0946999999999|          0.0947             0.2153    0.0946999999999| 0.0946999999999    0.0946999999999             0.2153|] Cmatrix=[0                  0                  0| 0                  0                  0| 0                  0                  0|]
New Line.62262_mdv201_1144239usd_int Phases=3 bus1=62262.1.2.3 bus2=mdv201_1144239usd_int.1.2.3 Units=km Length=0.001 Rmatrix=[1                  0                  0| 0     0.999999999999                  0| 0                  0                  1|] Xmatrix=[1                  0                  0| 0     0.999999999997                  0| 0                  0                  1|] Cmatrix=[0                  0                  0| 0                  0                  0| 0                  0                  0|]
New Line.39752_39753 Phases=1 bus1=39752.2 bus2=39753.2 Units=km Length=0.061569598 Rmatrix=0.058 Xmatrix=0.1206 Cmatrix=0
New Line.1017350_1017348 Phases=1 bus1=1017350.2 bus2=1017348.2 Units=km Length=0.1115568 Rmatrix=0.058 Xmatrix=0.1206 Cmatrix=0
New Line.1017348_1017349 Phases=1 bus1=1017348.2 bus2=1017349.2 Units=km Length=0.061874398 Rmatrix=0.058 Xmatrix=0.1206 Cmatrix=0
New Line.56760_56764 Phases=1 bus1=56760.1 bus2=56764.1 Units=km Length=0.057607198 Rmatrix=0.058 Xmatrix=0.1206 Cmatrix=0
New Line.56764_56772 Phases=1 bus1=56764.1 bus2=56772.1 Units=km Length=0.059131198 Rmatrix=0.058 Xmatrix=0.1206 Cmatrix=0
New Line.39620_39617 Phases=1 bus1=39620.2 bus2=39617.2 Units=km Length=0.056692798 Rmatrix=0.058 Xmatrix=0.1206 Cmatrix=0
New Line.39617_39615 Phases=1 bus1=39617.2 bus2=39615.2 Units=km Length=0.074066398 Rmatrix=0.058 Xmatrix=0.1206 Cmatrix=0
New Line.39589_39580 Phases=1 bus1=39589.1 bus2=39580.1 Units=km Length=0.019507199 Rmatrix=0.058 Xmatrix=0.1206 Cmatrix=0
New Line.39589_39577 Phases=1 bus1=39589.1 bus2=39577.1 Units=km Length=0.082905597 Rmatrix=0.058 Xmatrix=0.1206 Cmatrix=0
New Line.39580_39581 Phases=1 bus1=39580.1 bus2=39581.1 Units=km Length=0.053949598 Rmatrix=0.058 Xmatrix=0.1206 Cmatrix=0
New Line.74446_74440 Phases=1 bus1=74446.3 bus2=74440.3 Units=km Length=0.035966399 Rmatrix=0.058 Xmatrix=0.1206 Cmatrix=0
New Line.74440_74437 Phases=1 bus1=74440.3 bus2=74437.3 Units=km Length=0.063703198 Rmatrix=0.058 Xmatrix=0.1206 Cmatrix=0
New Line.58430_58429 Phases=3 bus1=58430.1.2.3 bus2=58429.1.2.3 Units=km Length=0.079552797 Rmatrix=[0.0981333333334    0.0401333333334    0.0401333333334| 0.0401333333334    0.0981333333335    0.0401333333334| 0.0401333333334    0.0401333333334    0.0981333333334|] Xmatrix=[         0.2153    0.0946999999999             0.0947| 0.0946999999999     0.215299999999    0.0946999999998|          0.0947    0.0946999999998             0.2153|] Cmatrix=[0                  0                  0| 0                  0                  0| 0                  0                  0|]
New Line.58430_111079 Phases=1 bus1=58430.2 bus2=111079.2 Units=km Length=0.001524 Rmatrix=0.058 Xmatrix=0.1206 Cmatrix=0
New Line.58429_58431 Phases=3 bus1=58429.1.2.3 bus2=58431.1.2.3 Units=km Length=0.068884798 Rmatrix=[0.0981333333335    0.0401333333333    0.0401333333333| 0.0401333333333    0.0981333333333    0.0401333333333| 0.0401333333333    0.0401333333333    0.0981333333333|] Xmatrix=[         0.2153             0.0947    0.0947000000003|          0.0947             0.2153    0.0947000000003| 0.0947000000003    0.0947000000003     0.215300000001|] Cmatrix=[0                  0                  0| 0                  0                  0| 0                  0                  0|]
New Line.28213_21655 Phases=1 bus1=28213.1 bus2=21655.1 Units=km Length=0.069189598 Rmatrix=0.058 Xmatrix=0.1206 Cmatrix=0
New Line.21655_21654 Phases=1 bus1=21655.1 bus2=21654.1 Units=km Length=0.048767998 Rmatrix=0.058 Xmatrix=0.1206 Cmatrix=0
New Line.63666_28249 Phases=2 bus1=63666.1.3 bus2=28249.1.3 Units=km Length=0.063093598 Rmatrix=[0.0981333333333    0.0401333333333| 0.0401333333333    0.0981333333334|] Xmatrix=[0.2153             0.0947| 0.0947             0.2153|] Cmatrix=[0                  0| 0                  0|]
New Line.63666_28239 Phases=1 bus1=63666.3 bus2=28239.3 Units=km Length=0.074371198 Rmatrix=0.058 Xmatrix=0.1206 Cmatrix=0
New Line.28249_28251 Phases=2 bus1=28249.1.3 bus2=28251.1.3 Units=km Length=0.045415199 Rmatrix=[0.0981333333333    0.0401333333333| 0.0401333333333    0.0981333333333|] Xmatrix=[0.2153             0.0947| 0.0947             0.2153|] Cmatrix=[0                  0| 0                  0|]
New Line.28249_28240 Phases=1 bus1=28249.3 bus2=28240.3 Units=km Length=0.053644798 Rmatrix=0.058 Xmatrix=0.1206 Cmatrix=0
New Line.105409_52524 Phases=3 bus1=105409.1.2.3 bus2=52524.1.2.3 Units=km Length=0.041452799 Rmatrix=[ 0.098133333333    0.0401333333333    0.0401333333334| 0.0401333333333    0.0981333333334    0.0401333333334| 0.0401333333334    0.0401333333334    0.0981333333331|] Xmatrix=[0.215299999998             0.0947             0.0947|         0.0947             0.2153             0.0947|         0.0947             0.0947     0.215299999999|] Cmatrix=[0                  0                  0| 0                  0                  0| 0                  0                  0|]
New Line.52524_14879 Phases=3 bus1=52524.1.2.3 bus2=14879.1.2.3 Units=km Length=0.069189598 Rmatrix=[0.0981333333332    0.0401333333335    0.0401333333334| 0.0401333333335    0.0981333333334    0.0401333333334| 0.0401333333334    0.0401333333334    0.0981333333334|] Xmatrix=[ 0.215300000001             0.0947    0.0947000000001|          0.0947             0.2153             0.0947| 0.0947000000001             0.0947             0.2153|] Cmatrix=[0                  0                  0| 0                  0                  0| 0                  0                  0|]
New Line.74424_39733 Phases=1 bus1=74424.1 bus2=39733.1 Units=km Length=0.073456798 Rmatrix=0.058 Xmatrix=0.1206 Cmatrix=0
New Line.39733_39734 Phases=1 bus1=39733.1 bus2=39734.1 Units=km Length=0.069799198 Rmatrix=0.058 Xmatrix=0.1206 Cmatrix=0
New Line.8111_8113 Phases=3 bus1=8111.1.2.3 bus2=8113.1.2.3 Units=km Length=0.064312798 Rmatrix=[0.0981333333333    0.0401333333333    0.0401333333333| 0.0401333333333    0.0981333333333    0.0401333333333| 0.0401333333333    0.0401333333333    0.0981333333333|] Xmatrix=[0.2153             0.0947             0.0947| 0.0947             0.2153             0.0947| 0.0947             0.0947             0.2153|] Cmatrix=[0                  0                  0| 0                  0                  0| 0                  0                  0|]
New Line.836_837 Phases=1 bus1=836.2 bus2=837.2 Units=km Length=0.054559198 Rmatrix=0.058 Xmatrix=0.1206 Cmatrix=0
New Line.837_39625 Phases=1 bus1=837.2 bus2=39625.2 Units=km Length=0.054559198 Rmatrix=0.058 Xmatrix=0.1206 Cmatrix=0
New Line.1023346_mdv201_796usd_int Phases=3 bus1=1023346.1.2.3 bus2=mdv201_796usd_int.1.2.3 Units=km Length=0.001 Rmatrix=[1                  0                  0| 0     0.999999999999                  0| 0                  0                  1|] Xmatrix=[1.00000000001                  0                  0|             0     0.999999999998                  0|             0                  0     0.999999999996|] Cmatrix=[0                  0                  0| 0                  0                  0| 0                  0                  0|]
New Line.mdv201_796usd_int_796 Phases=3 bus1=mdv201_796usd_int.1.2.3 bus2=796.1.2.3 Units=km Length=0.001524 Rmatrix=[0.0981333333331    0.0401333333333    0.0401333333333| 0.0401333333333    0.0981333333333    0.0401333333334| 0.0401333333333    0.0401333333334    0.0981333333335|] Xmatrix=[ 0.215300000002    0.0947000000002    0.0947000000002| 0.0947000000002     0.215299999999             0.0947| 0.0947000000002             0.0947     0.215299999999|] Cmatrix=[0                  0                  0| 0                  0                  0| 0                  0                  0|]
New Line.28262_28263 Phases=1 bus1=28262.3 bus2=28263.3 Units=km Length=0.042671999 Rmatrix=0.058 Xmatrix=0.1206 Cmatrix=0
New Line.52519_52521 Phases=1 bus1=52519.2 bus2=52521.2 Units=km Length=0.070713598 Rmatrix=0.058 Xmatrix=0.1206 Cmatrix=0
New Line.52519_39588 Phases=1 bus1=52519.2 bus2=39588.2 Units=km Length=0.058826398 Rmatrix=0.058 Xmatrix=0.1206 Cmatrix=0
New Line.52521_52522 Phases=1 bus1=52521.2 bus2=52522.2 Units=km Length=0.081381597 Rmatrix=0.058 Xmatrix=0.1206 Cmatrix=0
New Line.28199_28196 Phases=3 bus1=28199.1.2.3 bus2=28196.1.2.3 Units=km Length=0.066141598 Rmatrix=[0.0981333333333    0.0401333333333    0.0401333333333| 0.0401333333333    0.0981333333333    0.0401333333333| 0.0401333333333    0.0401333333333    0.0981333333333|] Xmatrix=[0.2153             0.0947             0.0947| 0.0947             0.2153             0.0947| 0.0947             0.0947             0.2153|] Cmatrix=[0                  0                  0| 0                  0                  0| 0                  0                  0|]
New Line.28196_28193 Phases=3 bus1=28196.1.2.3 bus2=28193.1.2.3 Units=km Length=0.056997598 Rmatrix=[0.0981333333333    0.0401333333333    0.0401333333333| 0.0401333333333    0.0981333333333    0.0401333333333| 0.0401333333333    0.0401333333333    0.0981333333333|] Xmatrix=[0.2153             0.0947             0.0947| 0.0947             0.2153             0.0947| 0.0947             0.0947             0.2153|] Cmatrix=[0                  0                  0| 0                  0                  0| 0                  0                  0|]
New Line.28264_28262 Phases=1 bus1=28264.3 bus2=28262.3 Units=km Length=0.064007998 Rmatrix=0.058 Xmatrix=0.1206 Cmatrix=0
New Line.28229_52531 Phases=1 bus1=28229.3 bus2=52531.3 Units=km Length=0.059131198 Rmatrix=0.058 Xmatrix=0.1206 Cmatrix=0
New Line.14870_63726 Phases=1 bus1=14870.1 bus2=63726.1 Units=km Length=0.068884798 Rmatrix=0.058 Xmatrix=0.1206 Cmatrix=0
New Line.46398_46399 Phases=1 bus1=46398.3 bus2=46399.3 Units=km Length=0.032613599 Rmatrix=0.058 Xmatrix=0.1206 Cmatrix=0
New Line.46399_46401 Phases=1 bus1=46399.3 bus2=46401.3 Units=km Length=0.041452799 Rmatrix=0.058 Xmatrix=0.1206 Cmatrix=0
New Line.46399_104582 Phases=1 bus1=46399.3 bus2=104582.3 Units=km Length=0.001524 Rmatrix=0.058 Xmatrix=0.1206 Cmatrix=0
New Line.62264_62265 Phases=3 bus1=62264.1.2.3 bus2=62265.1.2.3 Units=km Length=0.054863998 Rmatrix=[0.0981333333334    0.0401333333334    0.0401333333334| 0.0401333333334    0.0981333333331    0.0401333333332| 0.0401333333334    0.0401333333332    0.0981333333334|] Xmatrix=[0.2153             0.0947             0.0947| 0.0947             0.2153    0.0946999999998| 0.0947    0.0946999999998             0.2153|] Cmatrix=[0                  0                  0| 0                  0                  0| 0                  0                  0|]
New Line.62264_106895 Phases=1 bus1=62264.2 bus2=106895.2 Units=km Length=0.001524 Rmatrix=0.058 Xmatrix=0.1206 Cmatrix=0
New Line.106895_62307 Phases=1 bus1=106895.2 bus2=62307.2 Units=km Length=0.074066398 Rmatrix=0.058 Xmatrix=0.1206 Cmatrix=0
New Line.1163442_mdv201_1163443elb_int Phases=1 bus1=1163442.3 bus2=mdv201_1163443elb_int.3 Units=km Length=0.001 Rmatrix=1 Xmatrix=1 Cmatrix=0
New Line.mdv201_1163443elb_int_1163443 Phases=1 bus1=mdv201_1163443elb_int.3 bus2=1163443.3 Units=km Length=0.001524 Rmatrix=0.0001 Xmatrix=0.0001 Cmatrix=0
New Line.99420_6584 Phases=3 bus1=99420.1.2.3 bus2=6584.1.2.3 Units=km Length=0.068579998 Rmatrix=[  0.09813333334    0.0401333333347     0.040133333334| 0.0401333333347    0.0981333333337    0.0401333333337|  0.040133333334    0.0401333333337    0.0981333333337|] Xmatrix=[ 0.215299999994     0.094699999999    0.0946999999989|  0.094699999999     0.215299999998    0.0946999999995| 0.0946999999989    0.0946999999995             0.2153|] Cmatrix=[0                  0                  0| 0                  0                  0| 0                  0                  0|]
New Line.14828_1144249 Phases=1 bus1=14828.3 bus2=1144249.3 Units=km Length=0.001524 Rmatrix=0.058 Xmatrix=0.1206 Cmatrix=0
New Line.14828_14829 Phases=1 bus1=14828.2 bus2=14829.2 Units=km Length=0.053644798 Rmatrix=0.058 Xmatrix=0.1206 Cmatrix=0
New Line.1144249_14830 Phases=1 bus1=1144249.3 bus2=14830.3 Units=km Length=0.0140208 Rmatrix=0.058 Xmatrix=0.1206 Cmatrix=0
New Line.63726_63718 Phases=1 bus1=63726.1 bus2=63718.1 Units=km Length=0.064007998 Rmatrix=0.058 Xmatrix=0.1206 Cmatrix=0
New Line.8134_8131 Phases=1 bus1=8134.1 bus2=8131.1 Units=km Length=0.054559198 Rmatrix=0.058 Xmatrix=0.1206 Cmatrix=0
New Line.8134_8135 Phases=1 bus1=8134.1 bus2=8135.1 Units=km Length=0.030175199 Rmatrix=0.058 Xmatrix=0.1206 Cmatrix=0
New Line.8131_8127 Phases=1 bus1=8131.1 bus2=8127.1 Units=km Length=0.054863998 Rmatrix=0.058 Xmatrix=0.1206 Cmatrix=0
New Line.62232_62234 Phases=1 bus1=62232.3 bus2=62234.3 Units=km Length=0.049377598 Rmatrix=0.058 Xmatrix=0.1206 Cmatrix=0
New Line.62234_62243 Phases=1 bus1=62234.3 bus2=62243.3 Units=km Length=0.050901598 Rmatrix=0.058 Xmatrix=0.1206 Cmatrix=0
New Line.841_8083 Phases=3 bus1=841.1.2.3 bus2=8083.1.2.3 Units=km Length=0.039014399 Rmatrix=[0.0981333333332    0.0401333333333    0.0401333333334| 0.0401333333333    0.0981333333333    0.0401333333334| 0.0401333333334    0.0401333333334    0.0981333333334|] Xmatrix=[         0.2153    0.0947000000001             0.0947| 0.0947000000001             0.2153             0.0947|          0.0947             0.0947             0.2153|] Cmatrix=[0                  0                  0| 0                  0                  0| 0                  0                  0|]
New Line.841_1144259 Phases=2 bus1=841.1.3 bus2=1144259.1.3 Units=km Length=0.001524 Rmatrix=[0.0981333333331    0.0401333333334| 0.0401333333334    0.0981333333334|] Xmatrix=[0.2153             0.0947| 0.0947             0.2153|] Cmatrix=[0                  0| 0                  0|]
New Line.841_839 Phases=1 bus1=841.3 bus2=839.3 Units=km Length=0.01524 Rmatrix=0.058 Xmatrix=0.1206 Cmatrix=0
New Line.8083_8084 Phases=3 bus1=8083.1.2.3 bus2=8084.1.2.3 Units=km Length=0.031394399 Rmatrix=[0.0981333333333    0.0401333333333    0.0401333333333| 0.0401333333333    0.0981333333333    0.0401333333333| 0.0401333333333    0.0401333333333    0.0981333333333|] Xmatrix=[0.2153             0.0947             0.0947| 0.0947             0.2153             0.0947| 0.0947             0.0947             0.2153|] Cmatrix=[0                  0                  0| 0                  0                  0| 0                  0                  0|]
New Line.39579_52518 Phases=1 bus1=39579.2 bus2=52518.2 Units=km Length=0.060655198 Rmatrix=0.058 Xmatrix=0.1206 Cmatrix=0
New Line.52518_94728 Phases=1 bus1=52518.2 bus2=94728.2 Units=km Length=0.063093598 Rmatrix=0.058 Xmatrix=0.1206 Cmatrix=0
New Line.782_783 Phases=3 bus1=782.1.2.3 bus2=783.1.2.3 Units=km Length=0.057302398 Rmatrix=[0.0981333333333    0.0401333333333    0.0401333333333| 0.0401333333333    0.0981333333333    0.0401333333333| 0.0401333333333    0.0401333333333    0.0981333333333|] Xmatrix=[0.2153             0.0947             0.0947| 0.0947             0.2153             0.0947| 0.0947             0.0947             0.2153|] Cmatrix=[0                  0                  0| 0                  0                  0| 0                  0                  0|]
New Line.783_861 Phases=3 bus1=783.1.2.3 bus2=861.1.2.3 Units=km Length=0.058521598 Rmatrix=[0.0981333333333    0.0401333333333    0.0401333333333| 0.0401333333333    0.0981333333333    0.0401333333333| 0.0401333333333    0.0401333333333    0.0981333333333|] Xmatrix=[0.2153             0.0947             0.0947| 0.0947             0.2153             0.0947| 0.0947             0.0947             0.2153|] Cmatrix=[0                  0                  0| 0                  0                  0| 0                  0                  0|]
New Line.8132_8133 Phases=1 bus1=8132.1 bus2=8133.1 Units=km Length=0.038404799 Rmatrix=0.058 Xmatrix=0.1206 Cmatrix=0
New Line.8132_21652 Phases=1 bus1=8132.1 bus2=21652.1 Units=km Length=0.032613599 Rmatrix=0.058 Xmatrix=0.1206 Cmatrix=0
New Line.1160490_mdv201_c_1p032_1160490_int Phases=1 bus1=1160490.1 bus2=mdv201_c_1p032_1160490_int.1 Units=km Length=0.001524 Rmatrix=0.0001 Xmatrix=0.0001 Cmatrix=0
New Line.1160490_mdv201_c_1p031_1160490_int Phases=1 bus1=1160490.1 bus2=mdv201_c_1p031_1160490_int.1 Units=km Length=0.001524 Rmatrix=0.0001 Xmatrix=0.0001 Cmatrix=0
New Line.100477_28274 Phases=1 bus1=100477.3 bus2=28274.3 Units=km Length=0.076199998 Rmatrix=0.058 Xmatrix=0.1206 Cmatrix=0
New Line.28274_28275 Phases=1 bus1=28274.3 bus2=28275.3 Units=km Length=0.060350398 Rmatrix=0.058 Xmatrix=0.1206 Cmatrix=0
New Line.63677_63676 Phases=1 bus1=63677.1 bus2=63676.1 Units=km Length=0.035356799 Rmatrix=0.058 Xmatrix=0.1206 Cmatrix=0
New Line.63676_63678 Phases=1 bus1=63676.1 bus2=63678.1 Units=km Length=0.048463198 Rmatrix=0.058 Xmatrix=0.1206 Cmatrix=0
New Line.102184_28266 Phases=1 bus1=102184.3 bus2=28266.3 Units=km Length=0.028041599 Rmatrix=0.058 Xmatrix=0.1206 Cmatrix=0
New Line.28266_28267 Phases=1 bus1=28266.3 bus2=28267.3 Units=km Length=0.079247997 Rmatrix=0.058 Xmatrix=0.1206 Cmatrix=0
New Line.39772_39773 Phases=1 bus1=39772.3 bus2=39773.3 Units=km Length=0.088391997 Rmatrix=0.058 Xmatrix=0.1206 Cmatrix=0
New Line.28241_28238 Phases=1 bus1=28241.1 bus2=28238.1 Units=km Length=0.054863998 Rmatrix=0.058 Xmatrix=0.1206 Cmatrix=0
New Line.28238_28234 Phases=1 bus1=28238.1 bus2=28234.1 Units=km Length=0.051815998 Rmatrix=0.058 Xmatrix=0.1206 Cmatrix=0
New Line.848_1144260 Phases=1 bus1=848.2 bus2=1144260.2 Units=km Length=0.001524 Rmatrix=0.058 Xmatrix=0.1206 Cmatrix=0
New Line.1144260_849 Phases=1 bus1=1144260.2 bus2=849.2 Units=km Length=0.071323198 Rmatrix=0.058 Xmatrix=0.1206 Cmatrix=0
New Line.8095_8098 Phases=1 bus1=8095.3 bus2=8098.3 Units=km Length=0.041147999 Rmatrix=0.058 Xmatrix=0.1206 Cmatrix=0
New Line.8098_8108 Phases=1 bus1=8098.3 bus2=8108.3 Units=km Length=0.032308799 Rmatrix=0.058 Xmatrix=0.1206 Cmatrix=0
New Line.849_850 Phases=1 bus1=849.2 bus2=850.2 Units=km Length=0.045110399 Rmatrix=0.058 Xmatrix=0.1206 Cmatrix=0
New Line.849_840 Phases=1 bus1=849.2 bus2=840.2 Units=km Length=0.036880799 Rmatrix=0.058 Xmatrix=0.1206 Cmatrix=0
New Line.850_69491 Phases=1 bus1=850.2 bus2=69491.2 Units=km Length=0.060045598 Rmatrix=0.058 Xmatrix=0.1206 Cmatrix=0
New Line.63714_63711 Phases=3 bus1=63714.1.2.3 bus2=63711.1.2.3 Units=km Length=0.105156 Rmatrix=[0.0981333333333    0.0401333333333    0.0401333333333| 0.0401333333333    0.0981333333333    0.0401333333333| 0.0401333333333    0.0401333333333    0.0981333333333|] Xmatrix=[0.2153             0.0947             0.0947| 0.0947             0.2153             0.0947| 0.0947             0.0947             0.2153|] Cmatrix=[0                  0                  0| 0                  0                  0| 0                  0                  0|]
New Line.63711_44582 Phases=3 bus1=63711.1.2.3 bus2=44582.1.2.3 Units=km Length=0.043281599 Rmatrix=[0.0981333333333    0.0401333333333    0.0401333333333| 0.0401333333333    0.0981333333333    0.0401333333333| 0.0401333333333    0.0401333333333    0.0981333333333|] Xmatrix=[0.2153             0.0947             0.0947| 0.0947             0.2153             0.0947| 0.0947             0.0947             0.2153|] Cmatrix=[0                  0                  0| 0                  0                  0| 0                  0                  0|]
New Line.1160484_1160485 Phases=1 bus1=1160484.2 bus2=1160485.2 Units=km Length=0.042671999 Rmatrix=0.56004 Xmatrix=0.24495001 Cmatrix=0
New Line.1160485_mdv201_39754elb_int Phases=1 bus1=1160485.2 bus2=mdv201_39754elb_int.2 Units=km Length=0.001 Rmatrix=1 Xmatrix=1 Cmatrix=0
New Line.8127_8128 Phases=1 bus1=8127.1 bus2=8128.1 Units=km Length=0.041452799 Rmatrix=0.058 Xmatrix=0.1206 Cmatrix=0
New Line.8128_8130 Phases=1 bus1=8128.1 bus2=8130.1 Units=km Length=0.066446398 Rmatrix=0.058 Xmatrix=0.1206 Cmatrix=0
New Line.8119_8117 Phases=1 bus1=8119.1 bus2=8117.1 Units=km Length=0.048767998 Rmatrix=0.058 Xmatrix=0.1206 Cmatrix=0
New Line.8117_8118 Phases=1 bus1=8117.1 bus2=8118.1 Units=km Length=0.049072798 Rmatrix=0.058 Xmatrix=0.1206 Cmatrix=0
New Line.63709_63710 Phases=1 bus1=63709.1 bus2=63710.1 Units=km Length=0.045719999 Rmatrix=0.058 Xmatrix=0.1206 Cmatrix=0
New Line.21654_21653 Phases=1 bus1=21654.1 bus2=21653.1 Units=km Length=0.056083198 Rmatrix=0.058 Xmatrix=0.1206 Cmatrix=0
New Line.21653_21651 Phases=1 bus1=21653.1 bus2=21651.1 Units=km Length=0.046634399 Rmatrix=0.058 Xmatrix=0.1206 Cmatrix=0
New Line.63708_63703 Phases=1 bus1=63708.3 bus2=63703.3 Units=km Length=0.1161288 Rmatrix=0.058 Xmatrix=0.1206 Cmatrix=0
New Line.63703_28301 Phases=1 bus1=63703.3 bus2=28301.3 Units=km Length=0.046024799 Rmatrix=0.058 Xmatrix=0.1206 Cmatrix=0
New Line.63703_63704 Phases=1 bus1=63703.3 bus2=63704.3 Units=km Length=0.048767998 Rmatrix=0.058 Xmatrix=0.1206 Cmatrix=0
New Line.58411_106254 Phases=1 bus1=58411.1 bus2=106254.1 Units=km Length=0.001524 Rmatrix=0.058 Xmatrix=0.1206 Cmatrix=0
New Line.58411_88677 Phases=3 bus1=58411.1.2.3 bus2=88677.1.2.3 Units=km Length=0.059435998 Rmatrix=[0.0981333333333    0.0401333333333    0.0401333333333| 0.0401333333333    0.0981333333333    0.0401333333333| 0.0401333333333    0.0401333333333    0.0981333333334|] Xmatrix=[ 0.215300000001    0.0947000000002    0.0947000000002| 0.0947000000002             0.2153             0.0947| 0.0947000000002             0.0947             0.2153|] Cmatrix=[0                  0                  0| 0                  0                  0| 0                  0                  0|]
New Line.106254_58412 Phases=1 bus1=106254.1 bus2=58412.1 Units=km Length=0.070103998 Rmatrix=0.058 Xmatrix=0.1206 Cmatrix=0
New Line.1012405_1012407 Phases=1 bus1=1012405.3 bus2=1012407.3 Units=km Length=0.041757599 Rmatrix=0.058 Xmatrix=0.1206 Cmatrix=0
New Line.1012405_1012412 Phases=1 bus1=1012405.3 bus2=1012412.3 Units=km Length=0.060959998 Rmatrix=0.058 Xmatrix=0.1206 Cmatrix=0
New Line.1012405_1012411 Phases=1 bus1=1012405.3 bus2=1012411.3 Units=km Length=0.001524 Rmatrix=0.058 Xmatrix=0.1206 Cmatrix=0
New Line.810_1010731 Phases=3 bus1=810.1.2.3 bus2=1010731.1.2.3 Units=km Length=0.067360798 Rmatrix=[0.0981333333327    0.0401333333321    0.0401333333326| 0.0401333333321    0.0981333333314    0.0401333333323| 0.0401333333326    0.0401333333323     0.098133333332|] Xmatrix=[ 0.215300000001    0.0947000000029    0.0947000000015| 0.0947000000029     0.215300000004    0.0947000000021| 0.0947000000015    0.0947000000021     0.215300000003|] Cmatrix=[0                  0                  0| 0                  0                  0| 0                  0                  0|]
New Line.810_1010734 Phases=3 bus1=810.1.2.3 bus2=1010734.1.2.3 Units=km Length=0.070103998 Rmatrix=[0.0981333333324    0.0401333333309    0.0401333333322| 0.0401333333309    0.0981333333282    0.0401333333311| 0.0401333333322    0.0401333333311     0.098133333332|] Xmatrix=[         0.2153    0.0947000000008    0.0947000000004| 0.0947000000008     0.215300000002    0.0947000000007| 0.0947000000004    0.0947000000007             0.2153|] Cmatrix=[0                  0                  0| 0                  0                  0| 0                  0                  0|]
New Line.810_1144267 Phases=1 bus1=810.2 bus2=1144267.2 Units=km Length=0.001524 Rmatrix=0.058 Xmatrix=0.1206 Cmatrix=0
New Line.1010731_mdv201_1010732usd_int Phases=3 bus1=1010731.1.2.3 bus2=mdv201_1010732usd_int.1.2.3 Units=km Length=0.001 Rmatrix=[1                  0                  0| 0                  1                  0| 0                  0     0.999999999998|] Xmatrix=[1                  0                  0| 0                  1                  0| 0                  0     0.999999999995|] Cmatrix=[0                  0                  0| 0                  0                  0| 0                  0                  0|]
New Line.39745_74453 Phases=1 bus1=39745.3 bus2=74453.3 Units=km Length=0.058826398 Rmatrix=0.058 Xmatrix=0.1206 Cmatrix=0
New Line.39745_74452 Phases=1 bus1=39745.3 bus2=74452.3 Units=km Length=0.050291998 Rmatrix=0.058 Xmatrix=0.1206 Cmatrix=0
New Line.74453_74446 Phases=1 bus1=74453.3 bus2=74446.3 Units=km Length=0.028346399 Rmatrix=0.058 Xmatrix=0.1206 Cmatrix=0
New Line.6580_6582 Phases=3 bus1=6580.1.2.3 bus2=6582.1.2.3 Units=km Length=0.030784799 Rmatrix=[0.0981333333333    0.0401333333333    0.0401333333335| 0.0401333333333    0.0981333333333    0.0401333333334| 0.0401333333335    0.0401333333334    0.0981333333334|] Xmatrix=[ 0.215300000001    0.0947000000001    0.0947000000001| 0.0947000000001             0.2153    0.0947000000001| 0.0947000000001    0.0947000000001             0.2153|] Cmatrix=[0                  0                  0| 0                  0                  0| 0                  0                  0|]
New Line.6582_99419 Phases=1 bus1=6582.1 bus2=99419.1 Units=km Length=0.001524 Rmatrix=0.058 Xmatrix=0.1206 Cmatrix=0
New Line.6582_mdv201_99420usd_int Phases=3 bus1=6582.1.2.3 bus2=mdv201_99420usd_int.1.2.3 Units=km Length=0.001 Rmatrix=[0.999999999964                  0                  0|              0                  1                  0|              0                  0     0.999999999998|] Xmatrix=[0.999999999967                  0                  0|              0                  1                  0|              0                  0     0.999999999999|] Cmatrix=[0                  0                  0| 0                  0                  0| 0                  0                  0|]
New Line.1012412_1012413 Phases=1 bus1=1012412.3 bus2=1012413.3 Units=km Length=0.051815998 Rmatrix=0.058 Xmatrix=0.1206 Cmatrix=0
New Line.69622_69620 Phases=1 bus1=69622.2 bus2=69620.2 Units=km Length=0.052120798 Rmatrix=0.058 Xmatrix=0.1206 Cmatrix=0
New Line.69622_69624 Phases=1 bus1=69622.2 bus2=69624.2 Units=km Length=0.027736799 Rmatrix=0.058 Xmatrix=0.1206 Cmatrix=0
New Line.69620_14853 Phases=1 bus1=69620.2 bus2=14853.2 Units=km Length=0.030479999 Rmatrix=0.058 Xmatrix=0.1206 Cmatrix=0
New Line.63654_14891 Phases=3 bus1=63654.1.2.3 bus2=14891.1.2.3 Units=km Length=0.10668 Rmatrix=[0.0981333333333    0.0401333333333    0.0401333333333| 0.0401333333333    0.0981333333333    0.0401333333333| 0.0401333333333    0.0401333333333    0.0981333333333|] Xmatrix=[0.2153             0.0947             0.0947| 0.0947             0.2153             0.0947| 0.0947             0.0947             0.2153|] Cmatrix=[0                  0                  0| 0                  0                  0| 0                  0                  0|]
New Line.14891_14892 Phases=3 bus1=14891.1.2.3 bus2=14892.1.2.3 Units=km Length=0.091744797 Rmatrix=[0.0981333333333    0.0401333333333    0.0401333333333| 0.0401333333333    0.0981333333333    0.0401333333333| 0.0401333333333    0.0401333333333    0.0981333333333|] Xmatrix=[0.2153             0.0947             0.0947| 0.0947             0.2153             0.0947| 0.0947             0.0947             0.2153|] Cmatrix=[0                  0                  0| 0                  0                  0| 0                  0                  0|]
New Line.56756_1103250 Phases=1 bus1=56756.2 bus2=1103250.2 Units=km Length=0.049377598 Rmatrix=0.058 Xmatrix=0.1206 Cmatrix=0
New Line.6581_1017350 Phases=1 bus1=6581.2 bus2=1017350.2 Units=km Length=0.001524 Rmatrix=0.058 Xmatrix=0.1206 Cmatrix=0
New Line.6581_56756 Phases=1 bus1=6581.2 bus2=56756.2 Units=km Length=0.126492 Rmatrix=0.058 Xmatrix=0.1206 Cmatrix=0
New Line.14876_14872 Phases=1 bus1=14876.3 bus2=14872.3 Units=km Length=0.027431999 Rmatrix=0.058 Xmatrix=0.1206 Cmatrix=0
New Line.14872_14849 Phases=1 bus1=14872.3 bus2=14849.3 Units=km Length=0.060350398 Rmatrix=0.058 Xmatrix=0.1206 Cmatrix=0
New Line.1144245_62301 Phases=1 bus1=1144245.2 bus2=62301.2 Units=km Length=0.074675998 Rmatrix=0.058 Xmatrix=0.1206 Cmatrix=0
New Line.806_809 Phases=1 bus1=806.2 bus2=809.2 Units=km Length=0.054559198 Rmatrix=0.058 Xmatrix=0.1206 Cmatrix=0
New Line.809_813 Phases=1 bus1=809.2 bus2=813.2 Units=km Length=0.037490399 Rmatrix=0.058 Xmatrix=0.1206 Cmatrix=0
New Line.28248_28242 Phases=1 bus1=28248.1 bus2=28242.1 Units=km Length=0.055473598 Rmatrix=0.058 Xmatrix=0.1206 Cmatrix=0
New Line.28242_28243 Phases=1 bus1=28242.1 bus2=28243.1 Units=km Length=0.052120798 Rmatrix=0.058 Xmatrix=0.1206 Cmatrix=0
New Line.74420_74428 Phases=3 bus1=74420.1.2.3 bus2=74428.1.2.3 Units=km Length=0.050901598 Rmatrix=[0.0981333333333    0.0401333333333    0.0401333333333| 0.0401333333333    0.0981333333333    0.0401333333333| 0.0401333333333    0.0401333333333    0.0981333333333|] Xmatrix=[0.2153             0.0947             0.0947| 0.0947             0.2153             0.0947| 0.0947             0.0947             0.2153|] Cmatrix=[0                  0                  0| 0                  0                  0| 0                  0                  0|]
New Line.74428_74432 Phases=1 bus1=74428.1 bus2=74432.1 Units=km Length=0.0149352 Rmatrix=0.058 Xmatrix=0.1206 Cmatrix=0
New Line.74428_74433 Phases=3 bus1=74428.1.2.3 bus2=74433.1.2.3 Units=km Length=0.081381597 Rmatrix=[0.0981333333334    0.0401333333334    0.0401333333333| 0.0401333333334    0.0981333333333    0.0401333333333| 0.0401333333333    0.0401333333333    0.0981333333333|] Xmatrix=[         0.2153    0.0946999999999    0.0946999999999| 0.0946999999999             0.2153             0.0947| 0.0946999999999             0.0947             0.2153|] Cmatrix=[0                  0                  0| 0                  0                  0| 0                  0                  0|]
New Line.14831_14833 Phases=1 bus1=14831.3 bus2=14833.3 Units=km Length=0.102108 Rmatrix=0.058 Xmatrix=0.1206 Cmatrix=0
New Line.14833_14834 Phases=1 bus1=14833.3 bus2=14834.3 Units=km Length=0.081076797 Rmatrix=0.058 Xmatrix=0.1206 Cmatrix=0
New Line.28251_14893 Phases=2 bus1=28251.1.3 bus2=14893.1.3 Units=km Length=0.048158398 Rmatrix=[0.0981333333333    0.0401333333333| 0.0401333333333    0.0981333333333|] Xmatrix=[0.2153             0.0947| 0.0947             0.2153|] Cmatrix=[0                  0| 0                  0|]
New Line.14893_28241 Phases=1 bus1=14893.1 bus2=28241.1 Units=km Length=0.066446398 Rmatrix=0.058 Xmatrix=0.1206 Cmatrix=0
New Line.14893_28250 Phases=1 bus1=14893.1 bus2=28250.1 Units=km Length=0.061874398 Rmatrix=0.058 Xmatrix=0.1206 Cmatrix=0
New Line.14893_14894 Phases=1 bus1=14893.1 bus2=14894.1 Units=km Length=0.046024799 Rmatrix=0.058 Xmatrix=0.1206 Cmatrix=0
New Line.74456_46407 Phases=1 bus1=74456.3 bus2=46407.3 Units=km Length=0.078028798 Rmatrix=0.058 Xmatrix=0.1206 Cmatrix=0
New Line.46407_46406 Phases=1 bus1=46407.3 bus2=46406.3 Units=km Length=0.046024799 Rmatrix=0.058 Xmatrix=0.1206 Cmatrix=0
New Line.94736_94737 Phases=1 bus1=94736.1 bus2=94737.1 Units=km Length=0.068275198 Rmatrix=0.058 Xmatrix=0.1206 Cmatrix=0
New Line.94737_94739 Phases=1 bus1=94737.1 bus2=94739.1 Units=km Length=0.077419198 Rmatrix=0.058 Xmatrix=0.1206 Cmatrix=0
New Line.89779_89780 Phases=1 bus1=89779.3 bus2=89780.3 Units=km Length=0.065836798 Rmatrix=0.058 Xmatrix=0.1206 Cmatrix=0
New Line.89780_89785 Phases=1 bus1=89780.3 bus2=89785.3 Units=km Length=0.084734397 Rmatrix=0.058 Xmatrix=0.1206 Cmatrix=0
New Line.100480_63708 Phases=1 bus1=100480.3 bus2=63708.3 Units=km Length=0.054254398 Rmatrix=0.058 Xmatrix=0.1206 Cmatrix=0
New Line.1000988_1000987 Phases=1 bus1=1000988.1 bus2=1000987.1 Units=km Length=0.073456798 Rmatrix=0.56004 Xmatrix=0.24495 Cmatrix=0
New Line.1000987_1160497 Phases=1 bus1=1000987.1 bus2=1160497.1 Units=km Length=0.071932798 Rmatrix=0.56004 Xmatrix=0.24495 Cmatrix=0
New Line.28287_28288 Phases=3 bus1=28287.1.2.3 bus2=28288.1.2.3 Units=km Length=0.066446398 Rmatrix=[0.0981333333332    0.0401333333333    0.0401333333333| 0.0401333333333    0.0981333333333    0.0401333333333| 0.0401333333333    0.0401333333333    0.0981333333333|] Xmatrix=[ 0.215299999999    0.0946999999995    0.0946999999995| 0.0946999999995             0.2153    0.0946999999999| 0.0946999999995    0.0946999999999             0.2153|] Cmatrix=[0                  0                  0| 0                  0                  0| 0                  0                  0|]
New Line.28287_102185 Phases=1 bus1=28287.1 bus2=102185.1 Units=km Length=0.001524 Rmatrix=0.058 Xmatrix=0.1206 Cmatrix=0
New Line.28288_28292 Phases=2 bus1=28288.2.3 bus2=28292.2.3 Units=km Length=0.071932798 Rmatrix=[0.0981333333333    0.0401333333333| 0.0401333333333    0.0981333333333|] Xmatrix=[0.2153             0.0947| 0.0947             0.2153|] Cmatrix=[0                  0| 0                  0|]
New Line.mdv201_1010732usd_int_1010732 Phases=3 bus1=mdv201_1010732usd_int.1.2.3 bus2=1010732.1.2.3 Units=km Length=0.001524 Rmatrix=[0.0981333333334    0.0401333333333    0.0401333333333| 0.0401333333333    0.0981333333335    0.0401333333333| 0.0401333333333    0.0401333333333    0.0981333333333|] Xmatrix=[ 0.215300000001             0.0947    0.0947000000001|          0.0947             0.2153             0.0947| 0.0947000000001             0.0947     0.215299999999|] Cmatrix=[0                  0                  0| 0                  0                  0| 0                  0                  0|]
New Line.1010732_823 Phases=3 bus1=1010732.1.2.3 bus2=823.1.2.3 Units=km Length=0.035051999 Rmatrix=[0.0981333333351    0.0401333333351    0.0401333333383| 0.0401333333351     0.098133333335    0.0401333333383| 0.0401333333383    0.0401333333383     0.098133333345|] Xmatrix=[ 0.215299999995    0.0946999999999    0.0946999999982| 0.0946999999999             0.2153    0.0946999999982| 0.0946999999982    0.0946999999982     0.215299999995|] Cmatrix=[0                  0                  0| 0                  0                  0| 0                  0                  0|]
New Line.28226_1144262 Phases=1 bus1=28226.3 bus2=1144262.3 Units=km Length=0.001524 Rmatrix=0.058 Xmatrix=0.1206 Cmatrix=0
New Line.28226_28224 Phases=3 bus1=28226.1.2.3 bus2=28224.1.2.3 Units=km Length=0.049377598 Rmatrix=[0.0981333333337    0.0401333333338    0.0401333333343| 0.0401333333338    0.0981333333336    0.0401333333338| 0.0401333333343    0.0401333333338    0.0981333333337|] Xmatrix=[         0.2153    0.0946999999995    0.0946999999986| 0.0946999999995             0.2153    0.0946999999994| 0.0946999999986    0.0946999999994             0.2153|] Cmatrix=[0                  0                  0| 0                  0                  0| 0                  0                  0|]
New Line.1144262_28227 Phases=1 bus1=1144262.3 bus2=28227.3 Units=km Length=0.050901598 Rmatrix=0.058 Xmatrix=0.1206 Cmatrix=0
New Line.1127424_mdv201_osw_1127424_int Phases=3 bus1=1127424.1.2.3 bus2=mdv201_osw_1127424_int.1.2.3 Units=km Length=0.001524 Rmatrix=[0.0981333333334    0.0401333333333    0.0401333333333| 0.0401333333333    0.0981333333333    0.0401333333334| 0.0401333333333    0.0401333333334    0.0981333333331|] Xmatrix=[         0.2153    0.0947000000001             0.0947| 0.0947000000001             0.2153             0.0947|          0.0947             0.0947             0.2153|] Cmatrix=[0                  0                  0| 0                  0                  0| 0                  0                  0|]
New Line.56751_56762 Phases=3 bus1=56751.1.2.3 bus2=56762.1.2.3 Units=km Length=0.059435998 Rmatrix=[0.0981333333333    0.0401333333333    0.0401333333333| 0.0401333333333    0.0981333333333    0.0401333333333| 0.0401333333333    0.0401333333333    0.0981333333333|] Xmatrix=[0.2153             0.0947             0.0947| 0.0947             0.2153             0.0947| 0.0947             0.0947             0.2153|] Cmatrix=[0                  0                  0| 0                  0                  0| 0                  0                  0|]
New Line.56762_56766 Phases=3 bus1=56762.1.2.3 bus2=56766.1.2.3 Units=km Length=0.071018398 Rmatrix=[0.0981333333331    0.0401333333334    0.0401333333334| 0.0401333333334    0.0981333333334    0.0401333333333| 0.0401333333334    0.0401333333333    0.0981333333333|] Xmatrix=[ 0.215299999998    0.0947000000002    0.0947000000002| 0.0947000000002             0.2153    0.0947000000001| 0.0947000000002    0.0947000000001             0.2153|] Cmatrix=[0                  0                  0| 0                  0                  0| 0                  0                  0|]
New Line.6572_1144253 Phases=1 bus1=6572.2 bus2=1144253.2 Units=km Length=0.001524 Rmatrix=0.058 Xmatrix=0.1206 Cmatrix=0
New Line.6572_6573 Phases=1 bus1=6572.2 bus2=6573.2 Units=km Length=0.072237598 Rmatrix=0.058 Xmatrix=0.1206 Cmatrix=0
New Line.1144253_1144252 Phases=1 bus1=1144253.2 bus2=1144252.2 Units=km Length=0.051511198 Rmatrix=0.058 Xmatrix=0.1206 Cmatrix=0
New Line.28282_28281 Phases=1 bus1=28282.1 bus2=28281.1 Units=km Length=0.061569598 Rmatrix=0.058 Xmatrix=0.1206 Cmatrix=0
New Line.28281_28280 Phases=1 bus1=28281.1 bus2=28280.1 Units=km Length=0.049682398 Rmatrix=0.058 Xmatrix=0.1206 Cmatrix=0
New Line.28281_28283 Phases=1 bus1=28281.1 bus2=28283.1 Units=km Length=0.055168798 Rmatrix=0.058 Xmatrix=0.1206 Cmatrix=0
New Line.39588_39587 Phases=1 bus1=39588.2 bus2=39587.2 Units=km Length=0.064312798 Rmatrix=0.058 Xmatrix=0.1206 Cmatrix=0
New Line.39621_39623 Phases=1 bus1=39621.2 bus2=39623.2 Units=km Length=0.071323198 Rmatrix=0.058 Xmatrix=0.1206 Cmatrix=0
New Line.39621_39618 Phases=1 bus1=39621.2 bus2=39618.2 Units=km Length=0.055168798 Rmatrix=0.058 Xmatrix=0.1206 Cmatrix=0
New Line.1010738_8143 Phases=1 bus1=1010738.1 bus2=8143.1 Units=km Length=0.024079199 Rmatrix=0.058 Xmatrix=0.1206 Cmatrix=0
New Line.8143_1160458 Phases=1 bus1=8143.1 bus2=1160458.1 Units=km Length=0.056692798 Rmatrix=0.56004 Xmatrix=0.24495 Cmatrix=0
New Line.1017349_56788 Phases=1 bus1=1017349.2 bus2=56788.2 Units=km Length=0.094183197 Rmatrix=0.058 Xmatrix=0.1206 Cmatrix=0
New Line.63680_63683 Phases=2 bus1=63680.1.3 bus2=63683.1.3 Units=km Length=0.0146304 Rmatrix=[ 0.098133333333    0.0401333333333| 0.0401333333333    0.0981333333334|] Xmatrix=[0.215299999999             0.0947|         0.0947             0.2153|] Cmatrix=[0                  0| 0                  0|]
New Line.63680_63681 Phases=3 bus1=63680.1.2.3 bus2=63681.1.2.3 Units=km Length=0.059435998 Rmatrix=[0.0981333333333    0.0401333333333    0.0401333333333| 0.0401333333333    0.0981333333334    0.0401333333333| 0.0401333333333    0.0401333333333    0.0981333333333|] Xmatrix=[0.2153             0.0947             0.0947| 0.0947             0.2153             0.0947| 0.0947             0.0947             0.2153|] Cmatrix=[0                  0                  0| 0                  0                  0| 0                  0                  0|]
New Line.63681_63684 Phases=3 bus1=63681.1.2.3 bus2=63684.1.2.3 Units=km Length=0.070713598 Rmatrix=[0.0981333333334    0.0401333333333    0.0401333333333| 0.0401333333333    0.0981333333333    0.0401333333333| 0.0401333333333    0.0401333333333    0.0981333333333|] Xmatrix=[ 0.215299999999    0.0946999999999    0.0947000000001| 0.0946999999999             0.2153             0.0947| 0.0947000000001             0.0947             0.2153|] Cmatrix=[0                  0                  0| 0                  0                  0| 0                  0                  0|]
New Line.58431_106259 Phases=1 bus1=58431.3 bus2=106259.3 Units=km Length=0.001524 Rmatrix=0.058 Xmatrix=0.1206 Cmatrix=0
New Line.58431_58426 Phases=3 bus1=58431.1.2.3 bus2=58426.1.2.3 Units=km Length=0.072542398 Rmatrix=[0.0981333333324    0.0401333333321     0.040133333331| 0.0401333333321    0.0981333333305    0.0401333333281|  0.040133333331    0.0401333333281    0.0981333333301|] Xmatrix=[ 0.215300000001             0.0947    0.0947000000032|          0.0947             0.2153    0.0947000000074| 0.0947000000032    0.0947000000074     0.215300000002|] Cmatrix=[0                  0                  0| 0                  0                  0| 0                  0                  0|]
New Line.106259_58433 Phases=1 bus1=106259.3 bus2=58433.3 Units=km Length=0.0143256 Rmatrix=0.058 Xmatrix=0.1206 Cmatrix=0
New Line.823_8111 Phases=3 bus1=823.1.2.3 bus2=8111.1.2.3 Units=km Length=0.058216798 Rmatrix=[0.0981333333333    0.0401333333333    0.0401333333333| 0.0401333333333    0.0981333333333    0.0401333333333| 0.0401333333333    0.0401333333333    0.0981333333329|] Xmatrix=[0.2153             0.0947             0.0947| 0.0947             0.2153             0.0947| 0.0947             0.0947     0.215300000001|] Cmatrix=[0                  0                  0| 0                  0                  0| 0                  0                  0|]
New Line.823_1010733 Phases=1 bus1=823.3 bus2=1010733.3 Units=km Length=0.001524 Rmatrix=0.058 Xmatrix=0.1206 Cmatrix=0
New Line.39618_39619 Phases=1 bus1=39618.2 bus2=39619.2 Units=km Length=0.049072798 Rmatrix=0.058 Xmatrix=0.1206 Cmatrix=0
New Line.1140226_94731 Phases=1 bus1=1140226.3 bus2=94731.3 Units=km Length=0.065227198 Rmatrix=0.058 Xmatrix=0.1206 Cmatrix=0
New Line.94731_94732 Phases=1 bus1=94731.3 bus2=94732.3 Units=km Length=0.059435998 Rmatrix=0.058 Xmatrix=0.1206 Cmatrix=0
New Line.28186_854 Phases=3 bus1=28186.1.2.3 bus2=854.1.2.3 Units=km Length=0.058826398 Rmatrix=[0.0981333333333    0.0401333333333    0.0401333333333| 0.0401333333333    0.0981333333333    0.0401333333333| 0.0401333333333    0.0401333333333    0.0981333333333|] Xmatrix=[0.2153             0.0947             0.0947| 0.0947             0.2153             0.0947| 0.0947             0.0947             0.2153|] Cmatrix=[0                  0                  0| 0                  0                  0| 0                  0                  0|]
New Line.854_853 Phases=3 bus1=854.1.2.3 bus2=853.1.2.3 Units=km Length=0.054559198 Rmatrix=[0.0981333333335    0.0401333333333    0.0401333333333| 0.0401333333333    0.0981333333333    0.0401333333334| 0.0401333333333    0.0401333333334     0.098133333333|] Xmatrix=[0.2153             0.0947             0.0947| 0.0947             0.2153             0.0947| 0.0947             0.0947     0.215299999999|] Cmatrix=[0                  0                  0| 0                  0                  0| 0                  0                  0|]
New Line.28284_28286 Phases=3 bus1=28284.1.2.3 bus2=28286.1.2.3 Units=km Length=0.036575999 Rmatrix=[0.0981333333334    0.0401333333333    0.0401333333333| 0.0401333333333    0.0981333333333    0.0401333333333| 0.0401333333333    0.0401333333333    0.0981333333333|] Xmatrix=[0.2153             0.0947             0.0947| 0.0947             0.2153             0.0947| 0.0947             0.0947             0.2153|] Cmatrix=[0                  0                  0| 0                  0                  0| 0                  0                  0|]
[...]
New Load.Load_X_800_1.1_model_4 Phases=1 bus1=X_800_1.1 Kv=0.24 Kw=7.7274 Model=4 Kvar=3.2126
New Load.Load_X_800_2.1_model_4 Phases=1 bus1=X_800_2.1 Kv=0.24 Kw=7.7274 Model=4 Kvar=3.2126
New Load.Load_X_28226_1.3_model_4 Phases=1 bus1=X_28226_1.3 Kv=0.24 Kw=5.5511 Model=4 Kvar=2.1934
New Load.Load_X_28226_2.3_model_4 Phases=1 bus1=X_28226_2.3 Kv=0.24 Kw=5.5511 Model=4 Kvar=2.1934
New Load.Load_X_62298_1.2_model_4 Phases=1 bus1=X_62298_1.2 Kv=0.24 Kw=1.79 Model=4 Kvar=0.68381
New Load.Load_X_62298_2.2_model_4 Phases=1 bus1=X_62298_2.2 Kv=0.24 Kw=1.79 Model=4 Kvar=0.68381
New Load.Load_X_62298_3.2_model_4 Phases=1 bus1=X_62298_3.2 Kv=0.24 Kw=1.79 Model=4 Kvar=0.68381
New Load.Load_X_39742_1.3_model_4 Phases=1 bus1=X_39742_1.3 Kv=0.24 Kw=2.5061 Model=4 Kvar=0.99022
New Load.Load_X_58415_1.3_model_4 Phases=1 bus1=X_58415_1.3 Kv=0.24 Kw=2.7297 Model=4 Kvar=1.0786
New Load.Load_X_39771_1.2_model_4 Phases=1 bus1=X_39771_1.2 Kv=0.24 Kw=4.3379 Model=4 Kvar=1.6572
New Load.Load_X_94740_1.2_model_4 Phases=1 bus1=X_94740_1.2 Kv=0.24 Kw=3.9853 Model=4 Kvar=1.5225
New Load.Load_X_94740_2.2_model_4 Phases=1 bus1=X_94740_2.2 Kv=0.24 Kw=3.9853 Model=4 Kvar=1.5225
New Load.Load_X_94740_3.2_model_4 Phases=1 bus1=X_94740_3.2 Kv=0.24 Kw=3.9853 Model=4 Kvar=1.5225
New Load.Load_X_94740_4.2_model_4 Phases=1 bus1=X_94740_4.2 Kv=0.24 Kw=3.9853 Model=4 Kvar=1.5225
New Load.Load_X_62310_1.3_model_4 Phases=1 bus1=X_62310_1.3 Kv=0.24 Kw=5.3616 Model=4 Kvar=2.1185
New Load.Load_X_62310_2.3_model_4 Phases=1 bus1=X_62310_2.3 Kv=0.24 Kw=5.3616 Model=4 Kvar=2.1185
New Load.Load_X_62310_3.3_model_4 Phases=1 bus1=X_62310_3.3 Kv=0.24 Kw=5.3616 Model=4 Kvar=2.1185
New Load.Load_X_14848_1.3_model_4 Phases=1 bus1=X_14848_1.3 Kv=0.24 Kw=2.4364 Model=4 Kvar=0.96272
New Load.Load_X_62243_1.3_model_4 Phases=1 bus1=X_62243_1.3 Kv=0.24 Kw=5.8469 Model=4 Kvar=2.3103
New Load.Load_X_62243_2.3_model_4 Phases=1 bus1=X_62243_2.3 Kv=0.24 Kw=5.8469 Model=4 Kvar=2.3103
New Load.Load_X_62243_3.3_model_4 Phases=1 bus1=X_62243_3.3 Kv=0.24 Kw=5.8469 Model=4 Kvar=2.3103
New Load.Load_X_62243_4.3_model_4 Phases=1 bus1=X_62243_4.3 Kv=0.24 Kw=5.8469 Model=4 Kvar=2.3103
New Load.Load_X_39749_1.3_model_4 Phases=1 bus1=X_39749_1.3 Kv=0.24 Kw=7.7945 Model=4 Kvar=3.0799
New Load.Load_X_62302_1.2_model_4 Phases=1 bus1=X_62302_1.2 Kv=0.24 Kw=7.1889 Model=4 Kvar=2.7463
New Load.Load_X_62302_2.2_model_4 Phases=1 bus1=X_62302_2.2 Kv=0.24 Kw=7.1889 Model=4 Kvar=2.7463
New Load.Load_X_62302_3.2_model_4 Phases=1 bus1=X_62302_3.2 Kv=0.24 Kw=7.1889 Model=4 Kvar=2.7463
New Load.Load_X_62302_4.2_model_4 Phases=1 bus1=X_62302_4.2 Kv=0.24 Kw=7.1889 Model=4 Kvar=2.7463
New Load.Load_X_39616_1.2_model_4 Phases=1 bus1=X_39616_1.2 Kv=0.24 Kw=6.3061 Model=4 Kvar=2.4091
New Load.Load_X_39616_2.2_model_4 Phases=1 bus1=X_39616_2.2 Kv=0.24 Kw=6.3061 Model=4 Kvar=2.4091
New Load.Load_X_39616_3.2_model_4 Phases=1 bus1=X_39616_3.2 Kv=0.24 Kw=6.3061 Model=4 Kvar=2.4091
New Load.Load_X_802_1.2_model_4 Phases=1 bus1=X_802_1.2 Kv=0.24 Kw=4.3701 Model=4 Kvar=1.6695
New Load.Load_X_802_2.2_model_4 Phases=1 bus1=X_802_2.2 Kv=0.24 Kw=4.3701 Model=4 Kvar=1.6695
New Load.Load_X_802_3.2_model_4 Phases=1 bus1=X_802_3.2 Kv=0.24 Kw=4.3701 Model=4 Kvar=1.6695
New Load.Load_X_786_1.2_model_4 Phases=1 bus1=X_786_1.2 Kv=0.24 Kw=4.047 Model=4 Kvar=1.546
New Load.Load_X_786_2.2_model_4 Phases=1 bus1=X_786_2.2 Kv=0.24 Kw=4.047 Model=4 Kvar=1.546
New Load.Load_X_39766_1.3_model_4 Phases=1 bus1=X_39766_1.3 Kv=0.24 Kw=5.4572 Model=4 Kvar=2.1563
New Load.Load_X_8168_1.2_model_4 Phases=1 bus1=X_8168_1.2 Kv=0.24 Kw=3.8106 Model=4 Kvar=1.4557
New Load.Load_X_8168_2.2_model_4 Phases=1 bus1=X_8168_2.2 Kv=0.24 Kw=3.8106 Model=4 Kvar=1.4557
New Load.Load_X_8156_1.3_model_4 Phases=1 bus1=X_8156_1.3 Kv=0.24 Kw=5.2941 Model=4 Kvar=2.0919
New Load.Load_X_8156_2.3_model_4 Phases=1 bus1=X_8156_2.3 Kv=0.24 Kw=5.2941 Model=4 Kvar=2.0919
New Load.Load_X_8156_3.3_model_4 Phases=1 bus1=X_8156_3.3 Kv=0.24 Kw=5.2941 Model=4 Kvar=2.0919
New Load.Load_X_58425_1.1_model_4 Phases=1 bus1=X_58425_1.1 Kv=0.24 Kw=10.7935 Model=4 Kvar=4.4874
New Load.Load_X_39760_1.2_model_4 Phases=1 bus1=X_39760_1.2 Kv=0.24 Kw=5.8784 Model=4 Kvar=2.2457
New Load.Load_X_39760_2.2_model_4 Phases=1 bus1=X_39760_2.2 Kv=0.24 Kw=5.8784 Model=4 Kvar=2.2457
New Load.Load_X_39760_3.2_model_4 Phases=1 bus1=X_39760_3.2 Kv=0.24 Kw=5.8784 Model=4 Kvar=2.2457
New Load.Load_X_14875_1.1_model_4 Phases=1 bus1=X_14875_1.1 Kv=0.24 Kw=5.3174 Model=4 Kvar=2.2107
New Load.Load_X_62248_1.3_model_4 Phases=1 bus1=X_62248_1.3 Kv=0.24 Kw=8.7279 Model=4 Kvar=3.4487
New Load.Load_X_62248_2.3_model_4 Phases=1 bus1=X_62248_2.3 Kv=0.24 Kw=8.7279 Model=4 Kvar=3.4487
New Load.Load_X_63641_1.2_model_4 Phases=1 bus1=X_63641_1.2 Kv=0.24 Kw=4.8231 Model=4 Kvar=1.8425
New Load.Load_X_63641_2.2_model_4 Phases=1 bus1=X_63641_2.2 Kv=0.24 Kw=4.8231 Model=4 Kvar=1.8425
New Load.Load_X_814_1.1_model_4 Phases=1 bus1=X_814_1.1 Kv=0.24 Kw=6.2374 Model=4 Kvar=2.5932
New Load.Load_X_814_2.1_model_4 Phases=1 bus1=X_814_2.1 Kv=0.24 Kw=6.2374 Model=4 Kvar=2.5932
New Load.Load_X_814_3.1_model_4 Phases=1 bus1=X_814_3.1 Kv=0.24 Kw=6.2374 Model=4 Kvar=2.5932
New Load.Load_X_15004_1.2_model_4 Phases=1 bus1=X_15004_1.2 Kv=0.24 Kw=5.3796 Model=4 Kvar=2.0551
New Load.Load_X_15004_2.2_model_4 Phases=1 bus1=X_15004_2.2 Kv=0.24 Kw=5.3796 Model=4 Kvar=2.0551
New Load.Load_X_15004_3.2_model_4 Phases=1 bus1=X_15004_3.2 Kv=0.24 Kw=5.3796 Model=4 Kvar=2.0551
New Load.Load_X_1103251_1.3_model_4 Phases=1 bus1=X_1103251_1.3 Kv=0.24 Kw=1.3037 Model=4 Kvar=0.51512
New Load.Load_X_58413_1.1_model_4 Phases=1 bus1=X_58413_1.1 Kv=0.24 Kw=7.0766 Model=4 Kvar=2.9421
New Load.Load_X_39623_1.2_model_4 Phases=1 bus1=X_39623_1.2 Kv=0.24 Kw=5.6036 Model=4 Kvar=2.1407
New Load.Load_X_39623_2.2_model_4 Phases=1 bus1=X_39623_2.2 Kv=0.24 Kw=5.6036 Model=4 Kvar=2.1407
New Load.Load_X_39623_3.2_model_4 Phases=1 bus1=X_39623_3.2 Kv=0.24 Kw=5.6036 Model=4 Kvar=2.1407
New Load.Load_X_14863_1.1_model_4 Phases=1 bus1=X_14863_1.1 Kv=0.24 Kw=5.5785 Model=4 Kvar=2.3192
New Load.Load_X_94735_1.2_model_4 Phases=1 bus1=X_94735_1.2 Kv=0.24 Kw=4.5157 Model=4 Kvar=1.7251
New Load.Load_X_94735_2.2_model_4 Phases=1 bus1=X_94735_2.2 Kv=0.24 Kw=4.5157 Model=4 Kvar=1.7251
New Load.Load_X_63657_1.2_model_4 Phases=1 bus1=X_63657_1.2 Kv=0.24 Kw=2.8083 Model=4 Kvar=1.0728
New Load.Load_X_89780_1.3_model_4 Phases=1 bus1=X_89780_1.3 Kv=0.24 Kw=3.1368 Model=4 Kvar=1.2394
New Load.Load_X_39759_1.2_model_4 Phases=1 bus1=X_39759_1.2 Kv=0.24 Kw=5.9854 Model=4 Kvar=2.2865
New Load.Load_X_39759_2.2_model_4 Phases=1 bus1=X_39759_2.2 Kv=0.24 Kw=5.9854 Model=4 Kvar=2.2865
New Load.Load_X_39759_3.2_model_4 Phases=1 bus1=X_39759_3.2 Kv=0.24 Kw=5.9854 Model=4 Kvar=2.2865
New Load.Load_X_806_1.2_model_4 Phases=1 bus1=X_806_1.2 Kv=0.24 Kw=6.3357 Model=4 Kvar=2.4204
New Load.Load_X_806_2.2_model_4 Phases=1 bus1=X_806_2.2 Kv=0.24 Kw=6.3357 Model=4 Kvar=2.4204
New Load.Load_X_806_3.2_model_4 Phases=1 bus1=X_806_3.2 Kv=0.24 Kw=6.3357 Model=4 Kvar=2.4204
New Load.Load_X_806_4.2_model_4 Phases=1 bus1=X_806_4.2 Kv=0.24 Kw=6.3357 Model=4 Kvar=2.4204
New Load.Load_X_94732_1.3_model_4 Phases=1 bus1=X_94732_1.3 Kv=0.24 Kw=5.434 Model=4 Kvar=2.1471
New Load.Load_X_94732_2.3_model_4 Phases=1 bus1=X_94732_2.3 Kv=0.24 Kw=5.434 Model=4 Kvar=2.1471
New Load.Load_X_28248_1.1_model_4 Phases=1 bus1=X_28248_1.1 Kv=0.24 Kw=6.526 Model=4 Kvar=2.7132
New Load.Load_X_28248_2.1_model_4 Phases=1 bus1=X_28248_2.1 Kv=0.24 Kw=6.526 Model=4 Kvar=2.7132
New Load.Load_X_28248_3.1_model_4 Phases=1 bus1=X_28248_3.1 Kv=0.24 Kw=6.526 Model=4 Kvar=2.7132
New Load.Load_X_28248_4.1_model_4 Phases=1 bus1=X_28248_4.1 Kv=0.24 Kw=6.526 Model=4 Kvar=2.7132
New Load.Load_X_14978_1.3_model_4 Phases=1 bus1=X_14978_1.3 Kv=0.24 Kw=2.7838 Model=4 Kvar=1.1
New Load.Load_X_14978_2.3_model_4 Phases=1 bus1=X_14978_2.3 Kv=0.24 Kw=2.7838 Model=4 Kvar=1.1
New Load.Load_X_14978_3.3_model_4 Phases=1 bus1=X_14978_3.3 Kv=0.24 Kw=2.7838 Model=4 Kvar=1.1
New Load.Load_X_44586_1.2_model_4 Phases=1 bus1=X_44586_1.2 Kv=0.24 Kw=5.6804 Model=4 Kvar=2.17
New Load.Load_X_8128_1.1_model_4 Phases=1 bus1=X_8128_1.1 Kv=0.24 Kw=5.8272 Model=4 Kvar=2.4226
New Load.Load_X_52513_1.2_model_4 Phases=1 bus1=X_52513_1.2 Kv=0.24 Kw=6.0792 Model=4 Kvar=2.3224
New Load.Load_X_52513_2.2_model_4 Phases=1 bus1=X_52513_2.2 Kv=0.24 Kw=6.0792 Model=4 Kvar=2.3224
New Load.Load_X_52513_3.2_model_4 Phases=1 bus1=X_52513_3.2 Kv=0.24 Kw=6.0792 Model=4 Kvar=2.3224
New Load.Load_X_52513_4.2_model_4 Phases=1 bus1=X_52513_4.2 Kv=0.24 Kw=6.0792 Model=4 Kvar=2.3224
New Load.Load_X_21650_1.1_model_4 Phases=1 bus1=X_21650_1.1 Kv=0.24 Kw=2.6994 Model=4 Kvar=1.1223
New Load.Load_X_21650_2.1_model_4 Phases=1 bus1=X_21650_2.1 Kv=0.24 Kw=2.6994 Model=4 Kvar=1.1223
New Load.Load_X_21650_3.1_model_4 Phases=1 bus1=X_21650_3.1 Kv=0.24 Kw=2.6994 Model=4 Kvar=1.1223
New Load.Load_X_39745_1.3_model_4 Phases=1 bus1=X_39745_1.3 Kv=0.24 Kw=3.7788 Model=4 Kvar=1.4931
New Load.Load_X_39745_2.3_model_4 Phases=1 bus1=X_39745_2.3 Kv=0.24 Kw=3.7788 Model=4 Kvar=1.4931
New Load.Load_X_39745_3.3_model_4 Phases=1 bus1=X_39745_3.3 Kv=0.24 Kw=3.7788 Model=4 Kvar=1.4931
New Load.Load_X_28241_1.1_model_4 Phases=1 bus1=X_28241_1.1 Kv=0.24 Kw=4.412 Model=4 Kvar=1.8343
New Load.Load_X_28241_2.1_model_4 Phases=1 bus1=X_28241_2.1 Kv=0.24 Kw=4.412 Model=4 Kvar=1.8343
New Load.Load_X_28241_3.1_model_4 Phases=1 bus1=X_28241_3.1 Kv=0.24 Kw=4.412 Model=4 Kvar=1.8343
New Load.Load_X_39575_1.1_model_4 Phases=1 bus1=X_39575_1.1 Kv=0.24 Kw=6.2502 Model=4 Kvar=2.5985
New Load.Load_X_39575_2.1_model_4 Phases=1 bus1=X_39575_2.1 Kv=0.24 Kw=6.2502 Model=4 Kvar=2.5985
New Load.Load_X_6583_1.1_model_4 Phases=1 bus1=X_6583_1.1 Kv=0.24 Kw=6.9282 Model=4 Kvar=2.8804
New Load.Load_X_6583_2.1_model_4 Phases=1 bus1=X_6583_2.1 Kv=0.24 Kw=6.9282 Model=4 Kvar=2.8804
New Load.Load_X_1144236_1.2_model_4 Phases=1 bus1=X_1144236_1.2 Kv=0.24 Kw=6.145 Model=4 Kvar=2.3475
New Load.Load_X_1144236_2.2_model_4 Phases=1 bus1=X_1144236_2.2 Kv=0.24 Kw=6.145 Model=4 Kvar=2.3475
New Load.Load_X_789_1.2_model_4 Phases=1 bus1=X_789_1.2 Kv=0.24 Kw=5.1678 Model=4 Kvar=1.9742
New Load.Load_X_789_2.2_model_4 Phases=1 bus1=X_789_2.2 Kv=0.24 Kw=5.1678 Model=4 Kvar=1.9742
New Load.Load_X_789_3.2_model_4 Phases=1 bus1=X_789_3.2 Kv=0.24 Kw=5.1678 Model=4 Kvar=1.9742
New Load.Load_X_836_1.2_model_4 Phases=1 bus1=X_836_1.2 Kv=0.24 Kw=4.6223 Model=4 Kvar=1.7658
New Load.Load_X_836_2.2_model_4 Phases=1 bus1=X_836_2.2 Kv=0.24 Kw=4.6223 Model=4 Kvar=1.7658
New Load.Load_X_836_3.2_model_4 Phases=1 bus1=X_836_3.2 Kv=0.24 Kw=4.6223 Model=4 Kvar=1.7658
New Load.Load_X_28240_1.3_model_4 Phases=1 bus1=X_28240_1.3 Kv=0.24 Kw=5.3721 Model=4 Kvar=2.1227
New Load.Load_X_28240_2.3_model_4 Phases=1 bus1=X_28240_2.3 Kv=0.24 Kw=5.3721 Model=4 Kvar=2.1227
New Load.Load_X_28240_3.3_model_4 Phases=1 bus1=X_28240_3.3 Kv=0.24 Kw=5.3721 Model=4 Kvar=2.1227
New Load.Load_X_14837_1.3_model_4 Phases=1 bus1=X_14837_1.3 Kv=0.24 Kw=7.8641 Model=4 Kvar=3.1074
New Load.Load_X_14837_2.3_model_4 Phases=1 bus1=X_14837_2.3 Kv=0.24 Kw=7.8641 Model=4 Kvar=3.1074
New Load.Load_X_1012414_1.3_model_4 Phases=1 bus1=X_1012414_1.3 Kv=0.24 Kw=3.3963 Model=4 Kvar=1.342
New Load.Load_X_1012414_2.3_model_4 Phases=1 bus1=X_1012414_2.3 Kv=0.24 Kw=3.3963 Model=4 Kvar=1.342
New Load.Load_X_14844_1.3_model_4 Phases=1 bus1=X_14844_1.3 Kv=0.24 Kw=3.6663 Model=4 Kvar=1.4487
New Load.Load_X_74434_1.1_model_4 Phases=1 bus1=X_74434_1.1 Kv=0.24 Kw=4.6341 Model=4 Kvar=1.9266
New Load.Load_X_6578_1.1_model_4 Phases=1 bus1=X_6578_1.1 Kv=0.24 Kw=4.4384 Model=4 Kvar=1.8453
New Load.Load_X_6578_2.1_model_4 Phases=1 bus1=X_6578_2.1 Kv=0.24 Kw=4.4384 Model=4 Kvar=1.8453
New Load.Load_X_6578_3.1_model_4 Phases=1 bus1=X_6578_3.1 Kv=0.24 Kw=4.4384 Model=4 Kvar=1.8453
New Load.Load_X_62249_1.2_model_4 Phases=1 bus1=X_62249_1.2 Kv=0.24 Kw=9.8086 Model=4 Kvar=3.7471
New Load.Load_X_39590_1.1_model_4 Phases=1 bus1=X_39590_1.1 Kv=0.24 Kw=5.3748 Model=4 Kvar=2.2346
New Load.Load_X_39590_2.1_model_4 Phases=1 bus1=X_39590_2.1 Kv=0.24 Kw=5.3748 Model=4 Kvar=2.2346
New Load.Load_X_28233_1.3_model_4 Phases=1 bus1=X_28233_1.3 Kv=0.24 Kw=4.7519 Model=4 Kvar=1.8776
New Load.Load_X_28233_2.3_model_4 Phases=1 bus1=X_28233_2.3 Kv=0.24 Kw=4.7519 Model=4 Kvar=1.8776
New Load.Load_X_28233_3.3_model_4 Phases=1 bus1=X_28233_3.3 Kv=0.24 Kw=4.7519 Model=4 Kvar=1.8776
New Load.Load_X_28292_1.2_model_4 Phases=1 bus1=X_28292_1.2 Kv=0.24 Kw=2.8474 Model=4 Kvar=1.0878
New Load.Load_X_28292_2.2_model_4 Phases=1 bus1=X_28292_2.2 Kv=0.24 Kw=2.8474 Model=4 Kvar=1.0878
New Load.Load_X_28272_1.3_model_4 Phases=1 bus1=X_28272_1.3 Kv=0.24 Kw=4.9109 Model=4 Kvar=1.9404
New Load.Load_X_28272_2.3_model_4 Phases=1 bus1=X_28272_2.3 Kv=0.24 Kw=4.9109 Model=4 Kvar=1.9404
New Load.Load_X_1144263.1_model_4 Phases=1 bus1=X_1144263.1 Kv=0.24 Kw=4.4905 Model=4 Kvar=1.8669
New Load.Load_X_1144263_2.1_model_4 Phases=1 bus1=X_1144263_2.1 Kv=0.24 Kw=4.4905 Model=4 Kvar=1.8669
New Load.Load_X_1144263_3.1_model_4 Phases=1 bus1=X_1144263_3.1 Kv=0.24 Kw=4.4905 Model=4 Kvar=1.8669
New Load.Load_X_1144263_4.1_model_4 Phases=1 bus1=X_1144263_4.1 Kv=0.24 Kw=4.4905 Model=4 Kvar=1.8669
New Load.Load_X_63663_1.1_model_4 Phases=1 bus1=X_63663_1.1 Kv=0.24 Kw=6.2346 Model=4 Kvar=2.592
New Load.Load_X_56755_1.1_model_4 Phases=1 bus1=X_56755_1.1 Kv=0.24 Kw=5.0055 Model=4 Kvar=2.081
New Load.Load_X_56755_2.1_model_4 Phases=1 bus1=X_56755_2.1 Kv=0.24 Kw=5.0055 Model=4 Kvar=2.081
New Load.Load_X_56755_3.1_model_4 Phases=1 bus1=X_56755_3.1 Kv=0.24 Kw=5.0055 Model=4 Kvar=2.081
New Load.Load_X_56755_4.1_model_4 Phases=1 bus1=X_56755_4.1 Kv=0.24 Kw=5.0055 Model=4 Kvar=2.081
New Load.Load_X_74450_1.3_model_4 Phases=1 bus1=X_74450_1.3 Kv=0.24 Kw=5.1211 Model=4 Kvar=2.0235
New Load.Load_X_74450_2.3_model_4 Phases=1 bus1=X_74450_2.3 Kv=0.24 Kw=5.1211 Model=4 Kvar=2.0235
New Load.Load_X_74450_3.3_model_4 Phases=1 bus1=X_74450_3.3 Kv=0.24 Kw=5.1211 Model=4 Kvar=2.0235
New Load.Load_X_69488_1.2_model_4 Phases=1 bus1=X_69488_1.2 Kv=0.24 Kw=5.4871 Model=4 Kvar=2.0962
New Load.Load_X_69488_2.2_model_4 Phases=1 bus1=X_69488_2.2 Kv=0.24 Kw=5.4871 Model=4 Kvar=2.0962
New Load.Load_X_69488_3.2_model_4 Phases=1 bus1=X_69488_3.2 Kv=0.24 Kw=5.4871 Model=4 Kvar=2.0962
New Load.Load_X_63672_1.3_model_4 Phases=1 bus1=X_63672_1.3 Kv=0.24 Kw=6.0886 Model=4 Kvar=2.4058
New Load.Load_X_63672_2.3_model_4 Phases=1 bus1=X_63672_2.3 Kv=0.24 Kw=6.0886 Model=4 Kvar=2.4058
New Load.Load_X_63672_3.3_model_4 Phases=1 bus1=X_63672_3.3 Kv=0.24 Kw=6.0886 Model=4 Kvar=2.4058
New Load.Load_X_14882_1.3_model_4 Phases=1 bus1=X_14882_1.3 Kv=0.24 Kw=5.0691 Model=4 Kvar=2.0029
New Load.Load_X_842_1.1_model_4 Phases=1 bus1=X_842_1.1 Kv=0.24 Kw=3.1737 Model=4 Kvar=1.3195
New Load.Load_X_804_1.2_model_4 Phases=1 bus1=X_804_1.2 Kv=0.24 Kw=4.634 Model=4 Kvar=1.7703
New Load.Load_X_804_2.2_model_4 Phases=1 bus1=X_804_2.2 Kv=0.24 Kw=4.634 Model=4 Kvar=1.7703
New Load.Load_X_804_3.2_model_4 Phases=1 bus1=X_804_3.2 Kv=0.24 Kw=4.634 Model=4 Kvar=1.7703
New Load.Load_X_1144252_1.2_model_4 Phases=1 bus1=X_1144252_1.2 Kv=0.24 Kw=9.3851 Model=4 Kvar=3.5853
New Load.Load_X_1144252_2.2_model_4 Phases=1 bus1=X_1144252_2.2 Kv=0.24 Kw=9.3851 Model=4 Kvar=3.5853
New Load.Load_X_14838_1.3_model_4 Phases=1 bus1=X_14838_1.3 Kv=0.24 Kw=2.0314 Model=4 Kvar=0.80268
New Load.Load_X_39630_1.3_model_4 Phases=1 bus1=X_39630_1.3 Kv=0.24 Kw=8.0026 Model=4 Kvar=3.1621
New Load.Load_X_39630_2.3_model_4 Phases=1 bus1=X_39630_2.3 Kv=0.24 Kw=8.0026 Model=4 Kvar=3.1621
New Load.Load_X_39630_3.3_model_4 Phases=1 bus1=X_39630_3.3 Kv=0.24 Kw=8.0026 Model=4 Kvar=3.1621
New Load.Load_X_1144264_1.1_model_4 Phases=1 bus1=X_1144264_1.1 Kv=0.24 Kw=5.2672 Model=4 Kvar=2.1898
New Load.Load_X_1144264_2.1_model_4 Phases=1 bus1=X_1144264_2.1 Kv=0.24 Kw=5.2672 Model=4 Kvar=2.1898
New Load.Load_X_1144264_3.1_model_4 Phases=1 bus1=X_1144264_3.1 Kv=0.24 Kw=5.2672 Model=4 Kvar=2.1898
New Load.Load_X_1144264_4.1_model_4 Phases=1 bus1=X_1144264_4.1 Kv=0.24 Kw=5.2672 Model=4 Kvar=2.1898
New Load.Load_X_8184_1.1_model_4 Phases=1 bus1=X_8184_1.1 Kv=0.24 Kw=4.6362 Model=4 Kvar=1.9275
New Load.Load_X_94747_1.1_model_4 Phases=1 bus1=X_94747_1.1 Kv=0.24 Kw=0.35937 Model=4 Kvar=0.14941
New Load.Load_X_14845_1.1_model_4 Phases=1 bus1=X_14845_1.1 Kv=0.24 Kw=4.6926 Model=4 Kvar=1.9509
New Load.Load_X_14845_2.1_model_4 Phases=1 bus1=X_14845_2.1 Kv=0.24 Kw=4.6926 Model=4 Kvar=1.9509
New Load.Load_X_69617_1.1_model_4 Phases=1 bus1=X_69617_1.1 Kv=0.24 Kw=4.8473 Model=4 Kvar=2.0152
New Load.Load_X_69617_2.1_model_4 Phases=1 bus1=X_69617_2.1 Kv=0.24 Kw=4.8473 Model=4 Kvar=2.0152
New Load.Load_X_69617_3.1_model_4 Phases=1 bus1=X_69617_3.1 Kv=0.24 Kw=4.8473 Model=4 Kvar=2.0152
New Load.Load_X_46407_1.3_model_4 Phases=1 bus1=X_46407_1.3 Kv=0.24 Kw=3.655 Model=4 Kvar=1.4442
New Load.Load_X_46407_2.3_model_4 Phases=1 bus1=X_46407_2.3 Kv=0.24 Kw=3.655 Model=4 Kvar=1.4442
New Load.Load_X_46407_3.3_model_4 Phases=1 bus1=X_46407_3.3 Kv=0.24 Kw=3.655 Model=4 Kvar=1.4442
New Load.Load_X_69484_1.2_model_4 Phases=1 bus1=X_69484_1.2 Kv=0.24 Kw=5.4179 Model=4 Kvar=2.0698
New Load.Load_X_69484_2.2_model_4 Phases=1 bus1=X_69484_2.2 Kv=0.24 Kw=5.4179 Model=4 Kvar=2.0698
New Load.Load_X_69484_3.2_model_4 Phases=1 bus1=X_69484_3.2 Kv=0.24 Kw=5.4179 Model=4 Kvar=2.0698
New Load.Load_X_8109_1.1_model_4 Phases=1 bus1=X_8109_1.1 Kv=0.24 Kw=5.9142 Model=4 Kvar=2.4588
New Load.Load_X_8109_2.1_model_4 Phases=1 bus1=X_8109_2.1 Kv=0.24 Kw=5.9142 Model=4 Kvar=2.4588
New Load.Load_X_8109_3.1_model_4 Phases=1 bus1=X_8109_3.1 Kv=0.24 Kw=5.9142 Model=4 Kvar=2.4588
New Load.Load_X_39628_1.3_model_4 Phases=1 bus1=X_39628_1.3 Kv=0.24 Kw=5.6028 Model=4 Kvar=2.2138
New Load.Load_X_39628_2.3_model_4 Phases=1 bus1=X_39628_2.3 Kv=0.24 Kw=5.6028 Model=4 Kvar=2.2138
New Load.Load_X_39628_3.3_model_4 Phases=1 bus1=X_39628_3.3 Kv=0.24 Kw=5.6028 Model=4 Kvar=2.2138
New Load.Load_X_1012412_1.3_model_4 Phases=1 bus1=X_1012412_1.3 Kv=0.24 Kw=3.7738 Model=4 Kvar=1.4912
New Load.Load_X_1012412_2.3_model_4 Phases=1 bus1=X_1012412_2.3 Kv=0.24 Kw=3.7738 Model=4 Kvar=1.4912
New Load.Load_X_8196_1.2_model_4 Phases=1 bus1=X_8196_1.2 Kv=0.24 Kw=2.7754 Model=4 Kvar=1.0603
New Load.Load_X_63642_1.1_model_4 Phases=1 bus1=X_63642_1.1 Kv=0.24 Kw=2.4174 Model=4 Kvar=1.005
New Load.Load_X_28265_1.3_model_4 Phases=1 bus1=X_28265_1.3 Kv=0.24 Kw=2.4037 Model=4 Kvar=0.9498
New Load.Load_X_28265_2.3_model_4 Phases=1 bus1=X_28265_2.3 Kv=0.24 Kw=2.4037 Model=4 Kvar=0.9498
New Load.Load_X_63711_1.2_model_4 Phases=1 bus1=X_63711_1.2 Kv=0.24 Kw=3.8435 Model=4 Kvar=1.4683
New Load.Load_X_63711_2.2_model_4 Phases=1 bus1=X_63711_2.2 Kv=0.24 Kw=3.8435 Model=4 Kvar=1.4683
New Load.Load_X_14997_1.2_model_4 Phases=1 bus1=X_14997_1.2 Kv=0.24 Kw=5.1305 Model=4 Kvar=1.9599
New Load.Load_X_14997_2.2_model_4 Phases=1 bus1=X_14997_2.2 Kv=0.24 Kw=5.1305 Model=4 Kvar=1.9599
New Load.Load_X_39585_1.2_model_4 Phases=1 bus1=X_39585_1.2 Kv=0.24 Kw=5.1896 Model=4 Kvar=1.9825
New Load.Load_X_39585_2.2_model_4 Phases=1 bus1=X_39585_2.2 Kv=0.24 Kw=5.1896 Model=4 Kvar=1.9825
New Load.Load_X_39585_3.2_model_4 Phases=1 bus1=X_39585_3.2 Kv=0.24 Kw=5.1896 Model=4 Kvar=1.9825
New Load.Load_X_39585_4.2_model_4 Phases=1 bus1=X_39585_4.2 Kv=0.24 Kw=5.1896 Model=4 Kvar=1.9825
New Load.Load_X_52528_1.3_model_4 Phases=1 bus1=X_52528_1.3 Kv=0.24 Kw=4.701 Model=4 Kvar=1.8575
New Load.Load_X_52528_2.3_model_4 Phases=1 bus1=X_52528_2.3 Kv=0.24 Kw=4.701 Model=4 Kvar=1.8575
New Load.Load_X_8083.1_model_4 Phases=1 bus1=X_8083.1 Kv=0.24 Kw=4.9559 Model=4 Kvar=2.0604
New Load.Load_X_8083_1.1_model_4 Phases=1 bus1=X_8083_1.1 Kv=0.24 Kw=4.9559 Model=4 Kvar=2.0604
New Load.Load_X_8083_2.1_model_4 Phases=1 bus1=X_8083_2.1 Kv=0.24 Kw=4.9559 Model=4 Kvar=2.0604
New Load.Load_X_8083_3.1_model_4 Phases=1 bus1=X_8083_3.1 Kv=0.24 Kw=4.9559 Model=4 Kvar=2.0604


! Let DSS estimate the voltage bases
Set voltagebases=[345 115 13.8 12.47 4.16 0.48 0.415 0.208]
Calcvoltagebases     ! This also establishes the bus list

Buscoords OutputDSS_buscoords.csv


set maxiterations=1000
