Clear

New Circuit.IEEE8500_Reduced pu=1.05 R1=0 X1=0.001 R0=0 X0=0.001
New Line._hvmv_sub_lsb_hvmv_sub_48332 Phases=3 bus1=_hvmv_sub_lsb.1.2.3 bus2=hvmv_sub_48332.1.2.3 Units=km Length=0.001 Rmatrix=[0.000999999999981                  0                  0|                 0  0.000999999999979                  0|                 0                  0   0.00100000000001|] Xmatrix=[0.00999999999995                  0                  0|                0   0.00999999999988                  0|                0                  0    0.0100000000002|] Cmatrix=[0                  0                  0| 0                  0                  0| 0                  0                  0|]
New Line.hvmv_sub_48332_d5710794_3_int Phases=3 bus1=hvmv_sub_48332.1.2.3 bus2=d5710794_3_int.1.2.3 Units=km Length=0.019436038 Rmatrix=[ 0.214161999991    0.0557956999874    0.0571635999934| 0.0557956999874     0.212130999984    0.0560891999905| 0.0571635999934    0.0560891999905           0.214801|] Xmatrix=[0.634957000059     0.274870000047     0.246528000046| 0.274870000047     0.652375000073     0.290920000044| 0.246528000046     0.290920000044     0.629544000051|] Cmatrix=[0                  0                  0| 0                  0                  0| 0                  0                  0|]
New Line.m1009763_l2673322 Phases=1 bus1=m1009763.2 bus2=l2673322.2 Units=km Length=0.032175613 Rmatrix=1.67466 Xmatrix=0.93456 Cmatrix=0
New Line.m1009763_e182733 Phases=3 bus1=m1009763.1.2.3 bus2=e182733.1.2.3 Units=km Length=0.082687134 Rmatrix=[  1.6834           0.138324           0.142669| 0.138324            1.67686           0.139294| 0.142669           0.139294            1.68543|] Xmatrix=[  0.9273           0.432623           0.412253| 0.432623           0.932728           0.450469| 0.412253           0.450469           0.925637|] Cmatrix=[0                  0                  0| 0                  0                  0| 0                  0                  0|]
New Line.m1009763_l2766730 Phases=1 bus1=m1009763.2 bus2=l2766730.2 Units=km Length=0.024894507 Rmatrix=1.67466 Xmatrix=0.93456 Cmatrix=0
New Line.l2673322_l2859391 Phases=1 bus1=l2673322.2 bus2=l2859391.2 Units=km Length=0.04937834 Rmatrix=1.1223 Xmatrix=0.896365 Cmatrix=0
New Line.m1069148_l2673309 Phases=1 bus1=m1069148.3 bus2=l2673309.3 Units=km Length=0.10723408 Rmatrix=1.67466 Xmatrix=0.93456 Cmatrix=0
New Line.m1069148_l2785518 Phases=1 bus1=m1069148.3 bus2=l2785518.3 Units=km Length=0.027522384 Rmatrix=1.67466 Xmatrix=0.93456 Cmatrix=0
New Line.m1069588_l2804270 Phases=1 bus1=m1069588.2 bus2=l2804270.2 Units=km Length=0.011446341 Rmatrix=1.67466 Xmatrix=0.93456 Cmatrix=0
New Line.m1069588_m1069590 Phases=1 bus1=m1069588.2 bus2=m1069590.2 Units=km Length=0.11043884 Rmatrix=1.67466 Xmatrix=0.93456 Cmatrix=0
New Line.l2804270_l3104145 Phases=1 bus1=l2804270.2 bus2=l3104145.2 Units=km Length=0.088906626 Rmatrix=1.67466 Xmatrix=0.93456 Cmatrix=0
New Line.m3036164_l2935553 Phases=1 bus1=m3036164.2 bus2=l2935553.2 Units=km Length=0.047751634 Rmatrix=1.67466 Xmatrix=0.93456 Cmatrix=0
New Line.m3036164_l3085397 Phases=1 bus1=m3036164.2 bus2=l3085397.2 Units=km Length=0.16882667 Rmatrix=1.67466 Xmatrix=0.93456 Cmatrix=0
New Line.l2935553_m1026987 Phases=1 bus1=l2935553.2 bus2=m1026987.2 Units=km Length=0.13102515 Rmatrix=1.67723 Xmatrix=0.932411 Cmatrix=0
New Line.m1209749_l2748840 Phases=1 bus1=m1209749.2 bus2=l2748840.2 Units=km Length=0.20318135 Rmatrix=1.1223 Xmatrix=0.896365 Cmatrix=0
New Line.m1108264_m1108263 Phases=1 bus1=m1108264.2 bus2=m1108263.2 Units=km Length=0.099994301 Rmatrix=1.67723 Xmatrix=0.932411 Cmatrix=0
New Line.m1108263_n1142112 Phases=1 bus1=m1108263.2 bus2=n1142112.2 Units=km Length=0.11806677 Rmatrix=1.63382 Xmatrix=0.89683 Cmatrix=0
New Line.l3085398_m1026891 Phases=3 bus1=l3085398.1.2.3 bus2=m1026891.1.2.3 Units=km Length=0.085708298 Rmatrix=[  1.6834           0.138324           0.142669| 0.138324            1.67686           0.139294| 0.142669           0.139294            1.68543|] Xmatrix=[  0.9273           0.432623           0.412253| 0.432623           0.932728           0.450469| 0.412253           0.450469           0.925637|] Cmatrix=[0                  0                  0| 0                  0                  0| 0                  0                  0|]
New Line.m1026891_l3160102 Phases=3 bus1=m1026891.1.2.3 bus2=l3160102.1.2.3 Units=km Length=0.087272972 Rmatrix=[  1.6834           0.138324           0.142669| 0.138324            1.67686           0.139294| 0.142669           0.139294            1.68543|] Xmatrix=[  0.9273           0.432623           0.412253| 0.432623           0.932728           0.450469| 0.412253           0.450469     0.925637000002|] Cmatrix=[0                  0                  0| 0                  0                  0| 0                  0                  0|]
New Line.m1026891_n1147863 Phases=1 bus1=m1026891.3 bus2=n1147863.3 Units=km Length=0.009432757 Rmatrix=1.67466 Xmatrix=0.93456 Cmatrix=0
New Line.l3216367_m1069468 Phases=3 bus1=l3216367.1.2.3 bus2=m1069468.1.2.3 Units=km Length=0.04134682 Rmatrix=[ 0.66087           0.137499           0.142066| 0.137499           0.653999           0.138518| 0.142066           0.138518           0.663007|] Xmatrix=[0.869947           0.388579           0.366115| 0.388579           0.878528           0.405953| 0.366115           0.405953             0.8673|] Cmatrix=[0                  0                  0| 0                  0                  0| 0                  0                  0|]
New Line.m1069468_m1069464 Phases=3 bus1=m1069468.1.2.3 bus2=m1069464.1.2.3 Units=km Length=0.073122501 Rmatrix=[ 0.66087           0.137499           0.142066| 0.137499           0.653999     0.138518000001| 0.142066     0.138518000001           0.663007|] Xmatrix=[      0.869947     0.388579000001           0.366115| 0.388579000001     0.878528000002           0.405953|       0.366115           0.405953             0.8673|] Cmatrix=[0                  0                  0| 0                  0                  0| 0                  0                  0|]
New Line.m1069468_p827506 Phases=1 bus1=m1069468.1 bus2=p827506.1 Units=km Length=0.008514154 Rmatrix=1.67466 Xmatrix=0.93456 Cmatrix=0
New Line.m1142800_m1142799 Phases=1 bus1=m1142800.2 bus2=m1142799.2 Units=km Length=0.093302869 Rmatrix=1.1223 Xmatrix=0.896365 Cmatrix=0
New Line.m1142799_m1142798 Phases=1 bus1=m1142799.2 bus2=m1142798.2 Units=km Length=0.10077887 Rmatrix=1.1223 Xmatrix=0.896365 Cmatrix=0
New Line.m1047592_p827512 Phases=1 bus1=m1047592.3 bus2=p827512.3 Units=km Length=0.003656151 Rmatrix=1.67466 Xmatrix=0.93456 Cmatrix=0
New Line.m1047592_m3763619 Phases=3 bus1=m1047592.1.2.3 bus2=m3763619.1.2.3 Units=km Length=0.040091287 Rmatrix=[0.660869999999           0.137499     0.142065999999|       0.137499           0.653999           0.138518| 0.142065999999           0.138518           0.663007|] Xmatrix=[      0.869947           0.388579     0.366115000001|       0.388579           0.878528           0.405953| 0.366115000001           0.405953     0.867300000002|] Cmatrix=[0                  0                  0| 0                  0                  0| 0                  0                  0|]
New Line.p827512_n1136994 Phases=1 bus1=p827512.3 bus2=n1136994.3 Units=km Length=0.016077465 Rmatrix=1.67466 Xmatrix=0.93456 Cmatrix=0
New Line.m1047339_p895104 Phases=1 bus1=m1047339.1 bus2=p895104.1 Units=km Length=0.007739728 Rmatrix=1.63092 Xmatrix=0.861221 Cmatrix=0
New Line.m1047339_l2860491 Phases=3 bus1=m1047339.1.2.3 bus2=l2860491.1.2.3 Units=km Length=0.082877838 Rmatrix=[  1.6834           0.138324           0.142669| 0.138324            1.67686           0.139294| 0.142669           0.139294            1.68543|] Xmatrix=[0.927300000002           0.432623           0.412253|       0.432623           0.932728           0.450469|       0.412253           0.450469     0.925637000001|] Cmatrix=[0                  0                  0| 0                  0                  0| 0                  0                  0|]
New Line.p895104_n1139537 Phases=1 bus1=p895104.1 bus2=n1139537.1 Units=km Length=0.01423113 Rmatrix=1.63092 Xmatrix=0.861221 Cmatrix=0
New Line.m1026915_m1026920 Phases=3 bus1=m1026915.1.2.3 bus2=m1026920.1.2.3 Units=km Length=0.04084655 Rmatrix=[ 1.68626           0.141078           0.145566| 0.141078            1.12824            0.14208| 0.145566            0.14208             1.1371|] Xmatrix=[      0.924966     0.430358999998           0.409898| 0.430358999998     0.933764999995     0.448184999998|       0.409898     0.448184999998           0.926495|] Cmatrix=[0                  0                  0| 0                  0                  0| 0                  0                  0|]
New Line.m1026915_m1026916 Phases=1 bus1=m1026915.2 bus2=m1026916.2 Units=km Length=0.003048982 Rmatrix=1.1223 Xmatrix=0.896365 Cmatrix=0
New Line.m1026920_m1026926 Phases=3 bus1=m1026920.1.2.3 bus2=m1026926.1.2.3 Units=km Length=0.093921268 Rmatrix=[ 1.68626           0.141078           0.145566| 0.141078            1.12824            0.14208| 0.145566            0.14208             1.1371|] Xmatrix=[0.924965999997     0.430358999999     0.409898000001| 0.430358999999           0.933765     0.448185000001| 0.409898000001     0.448185000001           0.926495|] Cmatrix=[0                  0                  0| 0                  0                  0| 0                  0                  0|]
New Line.m1026920_l2729408 Phases=1 bus1=m1026920.2 bus2=l2729408.2 Units=km Length=0.024236541 Rmatrix=1.1223 Xmatrix=0.896365 Cmatrix=0
New Line.n1138596_l3254207 Phases=1 bus1=n1138596.1 bus2=l3254207.1 Units=km Length=0.024491351 Rmatrix=1.67466 Xmatrix=0.93456 Cmatrix=0
New Line.l3254207_m1069390 Phases=1 bus1=l3254207.1 bus2=m1069390.1 Units=km Length=0.070889737 Rmatrix=1.67466 Xmatrix=0.93456 Cmatrix=0
New Line.m1069464_p873787 Phases=1 bus1=m1069464.2 bus2=p873787.2 Units=km Length=0.006235546 Rmatrix=1.1223 Xmatrix=0.896365 Cmatrix=0
New Line.m1069464_m1069461 Phases=3 bus1=m1069464.1.2.3 bus2=m1069461.1.2.3 Units=km Length=0.080336373 Rmatrix=[ 0.66087           0.137499           0.142066| 0.137499           0.653999           0.138518| 0.142066           0.138518           0.663007|] Xmatrix=[0.869947           0.388579           0.366115| 0.388579     0.878527999999           0.405953| 0.366115           0.405953             0.8673|] Cmatrix=[0                  0                  0| 0                  0                  0| 0                  0                  0|]
New Line.p873787_m1069463 Phases=1 bus1=p873787.2 bus2=m1069463.2 Units=km Length=0.014773005 Rmatrix=1.1223 Xmatrix=0.896365 Cmatrix=0
New Line.n1144665_m1047515 Phases=3 bus1=n1144665.1.2.3 bus2=m1047515.1.2.3 Units=km Length=0.02738852 Rmatrix=[ 1.68626           0.141078           0.145566| 0.141078             1.6795            0.14208| 0.145566            0.14208            1.68836|] Xmatrix=[0.924966           0.430359           0.409898| 0.430359           0.930531           0.448185| 0.409898           0.448185           0.923261|] Cmatrix=[0                  0                  0| 0                  0                  0| 0                  0                  0|]
New Line.m1047515_m1047513 Phases=3 bus1=m1047515.1.2.3 bus2=m1047513.1.2.3 Units=km Length=0.11268739 Rmatrix=[  1.6834           0.138324           0.142669| 0.138324            1.67686           0.139294| 0.142669           0.139294            1.68543|] Xmatrix=[  0.9273           0.432623           0.412253| 0.432623           0.932728           0.450469| 0.412253           0.450469           0.925637|] Cmatrix=[0                  0                  0| 0                  0                  0| 0                  0                  0|]
New Line.n1137002_m1047707 Phases=1 bus1=n1137002.1 bus2=m1047707.1 Units=km Length=0.092480965 Rmatrix=1.1223 Xmatrix=0.896365 Cmatrix=0
New Line.m1047707_l3159645 Phases=1 bus1=m1047707.1 bus2=l3159645.1 Units=km Length=0.002342158 Rmatrix=1.1223 Xmatrix=0.896365 Cmatrix=0
New Line.l2729406_l2897768 Phases=1 bus1=l2729406.3 bus2=l2897768.3 Units=km Length=0.19477261 Rmatrix=1.67466 Xmatrix=0.93456 Cmatrix=0
New Line.l3649301_l3649302 Phases=1 bus1=l3649301.1 bus2=l3649302.1 Units=km Length=0.063060497 Rmatrix=1.1223 Xmatrix=0.896365 Cmatrix=0
New Line.l3649302_l3649304 Phases=1 bus1=l3649302.1 bus2=l3649304.1 Units=km Length=0.062760591 Rmatrix=1.1223 Xmatrix=0.896365 Cmatrix=0
New Line.l2970842_m1089113 Phases=1 bus1=l2970842.2 bus2=m1089113.2 Units=km Length=0.071877523 Rmatrix=1.67466 Xmatrix=0.93456 Cmatrix=0
New Line.m1089113_m1089103 Phases=1 bus1=m1089113.2 bus2=m1089103.2 Units=km Length=0.44113502 Rmatrix=1.67466 Xmatrix=0.93456 Cmatrix=0
New Line.m1089113_l2691946 Phases=1 bus1=m1089113.2 bus2=l2691946.2 Units=km Length=0.076013507 Rmatrix=1.1223 Xmatrix=0.896365 Cmatrix=0
New Line.m1047312_p893163 Phases=1 bus1=m1047312.1 bus2=p893163.1 Units=km Length=0.004144648 Rmatrix=1.63124 Xmatrix=0.898979 Cmatrix=0
New Line.m1047312_n1137960 Phases=3 bus1=m1047312.1.2.3 bus2=n1137960.1.2.3 Units=km Length=0.015169217 Rmatrix=[ 1.68626           0.141078           0.145566| 0.141078             1.6795            0.14208| 0.145566            0.14208            1.68836|] Xmatrix=[0.924966           0.430359           0.409898| 0.430359           0.930531           0.448185| 0.409898           0.448185           0.923261|] Cmatrix=[0                  0                  0| 0                  0                  0| 0                  0                  0|]
New Line.p893163_m1047314 Phases=1 bus1=p893163.1 bus2=m1047314.1 Units=km Length=0.003926085 Rmatrix=1.63124 Xmatrix=0.898979 Cmatrix=0
New Line.l2822871_m1026872 Phases=3 bus1=l2822871.1.2.3 bus2=m1026872.1.2.3 Units=km Length=0.060144485 Rmatrix=[ 0.66087           0.137499           0.142066| 0.137499           0.653999           0.138518| 0.142066           0.138518           0.663007|] Xmatrix=[0.869947           0.388579           0.366115| 0.388579           0.878528           0.405953| 0.366115           0.405953             0.8673|] Cmatrix=[0                  0                  0| 0                  0                  0| 0                  0                  0|]
New Line.m1026872_d5502543_2_int Phases=3 bus1=m1026872.1.2.3 bus2=d5502543_2_int.1.2.3 Units=km Length=0.091211804 Rmatrix=[0.660869999995     0.137499000001     0.142066000001| 0.137499000001           0.653999     0.138518000003| 0.142066000001     0.138518000003     0.663007000003|] Xmatrix=[0.869947000011     0.388578999995     0.366115000003| 0.388578999995     0.878527999997     0.405953000005| 0.366115000003     0.405953000005     0.867300000007|] Cmatrix=[0                  0                  0| 0                  0                  0| 0                  0                  0|]
New Line.m1026312_l2973163 Phases=1 bus1=m1026312.2 bus2=l2973163.2 Units=km Length=0.053487035 Rmatrix=1.67723 Xmatrix=0.932411 Cmatrix=0
New Line.l2973163_m1026309 Phases=1 bus1=l2973163.2 bus2=m1026309.2 Units=km Length=0.085882629 Rmatrix=1.67466 Xmatrix=0.93456 Cmatrix=0
New Line.l3728038_l3728039 Phases=1 bus1=l3728038.1 bus2=l3728039.1 Units=km Length=0.079108815 Rmatrix=1.1223 Xmatrix=0.896365 Cmatrix=0
New Line.l3728039_l3728040 Phases=1 bus1=l3728039.1 bus2=l3728040.1 Units=km Length=0.060347674 Rmatrix=1.1223 Xmatrix=0.896365 Cmatrix=0
New Line.m1069567_m1069582 Phases=1 bus1=m1069567.2 bus2=m1069582.2 Units=km Length=0.1529554 Rmatrix=1.67466 Xmatrix=0.93456 Cmatrix=0
New Line.m1069567_l2691966 Phases=1 bus1=m1069567.2 bus2=l2691966.2 Units=km Length=0.082046856 Rmatrix=1.67466 Xmatrix=0.93456 Cmatrix=0
New Line.m1069582_l2973171 Phases=1 bus1=m1069582.2 bus2=l2973171.2 Units=km Length=0.026225465 Rmatrix=1.1223 Xmatrix=0.896365 Cmatrix=0
New Line.m1069582_l2933165 Phases=1 bus1=m1069582.2 bus2=l2933165.2 Units=km Length=0.063075385 Rmatrix=1.67466 Xmatrix=0.93456 Cmatrix=0
New Line.m1069582_d6231996_1_int Phases=1 bus1=m1069582.2 bus2=d6231996_1_int.2 Units=km Length=0.024681061 Rmatrix=1.67466 Xmatrix=0.93456 Cmatrix=0
New Line.n1140830_l3216351 Phases=1 bus1=n1140830.1 bus2=l3216351.1 Units=km Length=0.00873965 Rmatrix=1.67466 Xmatrix=0.93456 Cmatrix=0
New Line.l3216351_l2879081 Phases=1 bus1=l3216351.1 bus2=l2879081.1 Units=km Length=0.031697757 Rmatrix=1.67466 Xmatrix=0.93456 Cmatrix=0
New Line.l2952007_l2861158 Phases=1 bus1=l2952007.3 bus2=l2861158.3 Units=km Length=0.12654648 Rmatrix=1.67466 Xmatrix=0.93456 Cmatrix=0
New Line.n1140827_m1026726 Phases=3 bus1=n1140827.1.2.3 bus2=m1026726.1.2.3 Units=km Length=0.017268995 Rmatrix=[  1.6834           0.138324           0.142669| 0.138324            1.67686           0.139294| 0.142669           0.139294            1.68543|] Xmatrix=[  0.9273           0.432623           0.412253| 0.432623           0.932728           0.450469| 0.412253           0.450469           0.925637|] Cmatrix=[0                  0                  0| 0                  0                  0| 0                  0                  0|]
New Line.m1026726_l2814529 Phases=3 bus1=m1026726.1.2.3 bus2=l2814529.1.2.3 Units=km Length=0.039576611 Rmatrix=[ 1.13148           0.137499           0.142066| 0.137499            1.12461           0.138518| 0.142066           0.138518            1.13362|] Xmatrix=[0.884886           0.388579           0.366115| 0.388579           0.893467           0.405953| 0.366115           0.405953           0.882239|] Cmatrix=[0                  0                  0| 0                  0                  0| 0                  0                  0|]
New Line.m1026726_l2916610 Phases=1 bus1=m1026726.2 bus2=l2916610.2 Units=km Length=0.065808439 Rmatrix=1.6773 Xmatrix=0.932059 Cmatrix=0
New Line.m1026726_l2876847 Phases=1 bus1=m1026726.2 bus2=l2876847.2 Units=km Length=0.072881573 Rmatrix=1.67466 Xmatrix=0.93456 Cmatrix=0
New Line.l2730106_n1142099 Phases=3 bus1=l2730106.1.2.3 bus2=n1142099.1.2.3 Units=km Length=0.022369032 Rmatrix=[0.270019           0.109951           0.113538| 0.109951           0.264634           0.110747| 0.113538           0.110747           0.271698|] Xmatrix=[0.695974            0.33351           0.308271|  0.33351           0.708729           0.350259| 0.308271           0.350259           0.692021|] Cmatrix=[0                  0                  0| 0                  0                  0| 0                  0                  0|]
New Line.n1142099_n1142100 Phases=3 bus1=n1142099.1.2.3 bus2=n1142100.1.2.3 Units=km Length=0.034874672 Rmatrix=[0.270019           0.109951           0.113538| 0.109951           0.264634           0.110747| 0.113538           0.110747           0.271698|] Xmatrix=[0.695974            0.33351           0.308271|  0.33351           0.708729           0.350259| 0.308271           0.350259           0.692021|] Cmatrix=[0                  0                  0| 0                  0                  0| 0                  0                  0|]
New Line.m1026658_l3172805 Phases=1 bus1=m1026658.1 bus2=l3172805.1 Units=km Length=0.10668036 Rmatrix=1.1223 Xmatrix=0.896365 Cmatrix=0
New Line.m1026658_m1026655 Phases=3 bus1=m1026658.1.2.3 bus2=m1026655.1.2.3 Units=km Length=0.071404206 Rmatrix=[ 1.63999           0.138324           0.142669| 0.138324            1.63344           0.139294| 0.142669           0.139294            1.64202|] Xmatrix=[0.891719           0.432623           0.412253| 0.432623     0.897146000001     0.450469000001| 0.412253     0.450469000001     0.890056000003|] Cmatrix=[0                  0                  0| 0                  0                  0| 0                  0                  0|]
New Line.p895112_l3048962 Phases=1 bus1=p895112.1 bus2=l3048962.1 Units=km Length=0.025604159 Rmatrix=1.12339 Xmatrix=0.937794 Cmatrix=0
New Line.l2991914_m1047503 Phases=3 bus1=l2991914.1.2.3 bus2=m1047503.1.2.3 Units=km Length=0.035650057 Rmatrix=[  1.6834           0.138324           0.142669| 0.138324            1.67686           0.139294| 0.142669           0.139294            1.68543|] Xmatrix=[  0.9273           0.432623           0.412253| 0.432623           0.932728           0.450469| 0.412253           0.450469           0.925637|] Cmatrix=[0                  0                  0| 0                  0                  0| 0                  0                  0|]
New Line.m1047503_l2841635 Phases=3 bus1=m1047503.1.2.3 bus2=l2841635.1.2.3 Units=km Length=0.023766378 Rmatrix=[  1.6834           0.138324           0.142669| 0.138324            1.67686           0.139294| 0.142669           0.139294            1.68543|] Xmatrix=[  0.9273           0.432623           0.412253| 0.432623           0.932728           0.450469| 0.412253           0.450469           0.925637|] Cmatrix=[0                  0                  0| 0                  0                  0| 0                  0                  0|]
New Line.m1047751_l2973154 Phases=1 bus1=m1047751.1 bus2=l2973154.1 Units=km Length=0.00930772 Rmatrix=1.67466 Xmatrix=0.93456 Cmatrix=0
New Line.l2973154_l2879069 Phases=1 bus1=l2973154.1 bus2=l2879069.1 Units=km Length=0.064089636 Rmatrix=1.67466 Xmatrix=0.93456 Cmatrix=0
New Line.l3010565_l2897775 Phases=1 bus1=l3010565.3 bus2=l2897775.3 Units=km Length=0.14082596 Rmatrix=1.1223 Xmatrix=0.896365 Cmatrix=0
New Line.m1125955_m1125957 Phases=1 bus1=m1125955.3 bus2=m1125957.3 Units=km Length=0.00682612 Rmatrix=1.63382 Xmatrix=0.89683 Cmatrix=0
New Line.m1125955_l3236004 Phases=1 bus1=m1125955.3 bus2=l3236004.3 Units=km Length=0.11286033 Rmatrix=1.63382 Xmatrix=0.89683 Cmatrix=0
New Line.m1125957_l2936211 Phases=1 bus1=m1125957.3 bus2=l2936211.3 Units=km Length=0.037860101 Rmatrix=1.63382 Xmatrix=0.89683 Cmatrix=0
New Line.m1069640_l2804269 Phases=1 bus1=m1069640.2 bus2=l2804269.2 Units=km Length=0.10114503 Rmatrix=1.67466 Xmatrix=0.93456 Cmatrix=0
New Line.m1069640_l3160113 Phases=1 bus1=m1069640.2 bus2=l3160113.2 Units=km Length=0.094142779 Rmatrix=1.1223 Xmatrix=0.896365 Cmatrix=0
New Line.l2804269_l2989564 Phases=1 bus1=l2804269.2 bus2=l2989564.2 Units=km Length=0.062072526 Rmatrix=1.67466 Xmatrix=0.93456 Cmatrix=0
New Line.m1026702_n1139551 Phases=3 bus1=m1026702.1.2.3 bus2=n1139551.1.2.3 Units=km Length=0.12873466 Rmatrix=[ 1.68626           0.141078           0.145566| 0.141078             1.6795            0.14208| 0.145566            0.14208            1.68836|] Xmatrix=[      0.924966           0.430359     0.409897999999|       0.430359     0.930531000001           0.448185| 0.409897999999           0.448185           0.923261|] Cmatrix=[0                  0                  0| 0                  0                  0| 0                  0                  0|]
New Line.m1026702_l2729414 Phases=3 bus1=m1026702.1.2.3 bus2=l2729414.1.2.3 Units=km Length=0.049898074 Rmatrix=[ 1.13148           0.137499           0.142066| 0.137499            1.12461           0.138518| 0.142066           0.138518            1.13362|] Xmatrix=[0.884886           0.388579           0.366115| 0.388579           0.893467           0.405953| 0.366115           0.405953           0.882239|] Cmatrix=[0                  0                  0| 0                  0                  0| 0                  0                  0|]
New Line.n1139551_m1026695 Phases=3 bus1=n1139551.1.2.3 bus2=m1026695.1.2.3 Units=km Length=0.022589219 Rmatrix=[ 1.68626           0.141078           0.145566| 0.141078             1.6795            0.14208| 0.145566            0.14208            1.68836|] Xmatrix=[0.924966           0.430359           0.409898| 0.430359           0.930531           0.448185| 0.409898           0.448185     0.923260999999|] Cmatrix=[0                  0                  0| 0                  0                  0| 0                  0                  0|]
New Line.n1136355_l2783231 Phases=1 bus1=n1136355.2 bus2=l2783231.2 Units=km Length=0.072454801 Rmatrix=1.63382 Xmatrix=0.89683 Cmatrix=0
New Line.l2783231_l3254227 Phases=1 bus1=l2783231.2 bus2=l3254227.2 Units=km Length=0.15193956 Rmatrix=1.63382 Xmatrix=0.89683 Cmatrix=0
New Line.l2748143_l3251854 Phases=1 bus1=l2748143.1 bus2=l3251854.1 Units=km Length=0.067056078 Rmatrix=1.1223 Xmatrix=0.896365 Cmatrix=0
New Line.m1069610_m1069600 Phases=1 bus1=m1069610.2 bus2=m1069600.2 Units=km Length=0.060959705 Rmatrix=1.1223 Xmatrix=0.896365 Cmatrix=0
New Line.m1069610_l2991929 Phases=1 bus1=m1069610.2 bus2=l2991929.2 Units=km Length=0.045811507 Rmatrix=1.1223 Xmatrix=0.896365 Cmatrix=0
New Line.m1069600_l3102793 Phases=1 bus1=m1069600.2 bus2=l3102793.2 Units=km Length=0.057912138 Rmatrix=1.1223 Xmatrix=0.896365 Cmatrix=0
New Line.m1069424_l2935549 Phases=3 bus1=m1069424.1.2.3 bus2=l2935549.1.2.3 Units=km Length=0.088596305 Rmatrix=[ 0.66087           0.137499           0.142066| 0.137499           0.653999           0.138518| 0.142066           0.138518           0.663007|] Xmatrix=[0.869947           0.388579           0.366115| 0.388579           0.878528           0.405953| 0.366115           0.405953             0.8673|] Cmatrix=[0                  0                  0| 0                  0                  0| 0                  0                  0|]
New Line.m1069424_n1139255 Phases=1 bus1=m1069424.1 bus2=n1139255.1 Units=km Length=0.010667139 Rmatrix=1.1223 Xmatrix=0.896365 Cmatrix=0
New Line.l2935549_m1069420 Phases=3 bus1=l2935549.1.2.3 bus2=m1069420.1.2.3 Units=km Length=0.096022455 Rmatrix=[ 0.66087           0.137499           0.142066| 0.137499           0.653999           0.138518| 0.142066           0.138518           0.663007|] Xmatrix=[0.869947           0.388579           0.366115| 0.388579           0.878528           0.405953| 0.366115           0.405953             0.8673|] Cmatrix=[0                  0                  0| 0                  0                  0| 0                  0                  0|]
New Line.p895089_l3235242 Phases=1 bus1=p895089.3 bus2=l3235242.3 Units=km Length=0.060507038 Rmatrix=1.1223 Xmatrix=0.896365 Cmatrix=0
New Line.l3235242_m1089195 Phases=1 bus1=l3235242.3 bus2=m1089195.3 Units=km Length=0.13761906 Rmatrix=1.1223 Xmatrix=0.896365 Cmatrix=0
New Line.m1026795_n1140522 Phases=1 bus1=m1026795.3 bus2=n1140522.3 Units=km Length=0.013557509 Rmatrix=1.1223 Xmatrix=0.896365 Cmatrix=0
New Line.m1026795_m1026786 Phases=3 bus1=m1026795.1.2.3 bus2=m1026786.1.2.3 Units=km Length=0.073764865 Rmatrix=[ 1.68625999999     0.141078000002           0.145566| 0.141078000002             1.6795     0.142079999999|       0.145566     0.142079999999            1.68836|] Xmatrix=[      0.924966     0.430358999999     0.409897999994| 0.430358999999     0.930530999998     0.448185000002| 0.409897999994     0.448185000002     0.923260999999|] Cmatrix=[0                  0                  0| 0                  0                  0| 0                  0                  0|]
New Line.n1140522_l2822870 Phases=1 bus1=n1140522.3 bus2=l2822870.3 Units=km Length=0.015752827 Rmatrix=1.1223 Xmatrix=0.896365 Cmatrix=0
New Line.l3030199_m1125934 Phases=3 bus1=l3030199.1.2.3 bus2=m1125934.1.2.3 Units=km Length=0.029294768 Rmatrix=[0.270019           0.109951           0.113538| 0.109951           0.264634           0.110747| 0.113538           0.110747           0.271698|] Xmatrix=[0.695974            0.33351           0.308271|  0.33351           0.708729           0.350259| 0.308271           0.350259           0.692021|] Cmatrix=[0                  0                  0| 0                  0                  0| 0                  0                  0|]
New Line.m1125934_l2730163 Phases=3 bus1=m1125934.1.2.3 bus2=l2730163.1.2.3 Units=km Length=0.063376308 Rmatrix=[0.270019           0.109951           0.113538| 0.109951           0.264634           0.110747| 0.113538           0.110747           0.271698|] Xmatrix=[0.695974            0.33351           0.308271|  0.33351           0.708729           0.350259| 0.308271           0.350259           0.692021|] Cmatrix=[0                  0                  0| 0                  0                  0| 0                  0                  0|]
New Line.m1069189_l2860487 Phases=1 bus1=m1069189.3 bus2=l2860487.3 Units=km Length=0.086987129 Rmatrix=1.63382 Xmatrix=0.89683 Cmatrix=0
New Line.m1069189_m1069184 Phases=3 bus1=m1069189.1.2.3 bus2=m1069184.1.2.3 Units=km Length=0.025828657 Rmatrix=[ 1.64285           0.141078           0.145566| 0.141078            1.63609            0.14208| 0.145566            0.14208            1.64495|] Xmatrix=[0.889385           0.430359           0.409898| 0.430359            0.89495           0.448185| 0.409898           0.448185            0.88768|] Cmatrix=[0                  0                  0| 0                  0                  0| 0                  0                  0|]
New Line.221_312488_m1089183 Phases=3 bus1=221_312488.1.2.3 bus2=m1089183.1.2.3 Units=km Length=0.013516796 Rmatrix=[0.817573333334     0.266413333333     0.266413333333| 0.266413333333     0.817573333333     0.266413333333| 0.266413333333     0.266413333333     0.817573333333|] Xmatrix=[        0.27614    0.0753700000001    0.0753699999999| 0.0753700000001            0.27614    0.0753699999998| 0.0753699999999    0.0753699999998     0.276140000001|] Cmatrix=[0                  0                  0| 0                  0                  0| 0                  0                  0|]
New Line.m1089183_l2990826 Phases=3 bus1=m1089183.1.2.3 bus2=l2990826.1.2.3 Units=km Length=0.052078294 Rmatrix=[0.817573333333     0.266413333333     0.266413333333| 0.266413333333     0.817573333333     0.266413333333| 0.266413333333     0.266413333333     0.817573333333|] Xmatrix=[        0.27614            0.07537    0.0753699999999|         0.07537            0.27614    0.0753699999999| 0.0753699999999    0.0753699999999            0.27614|] Cmatrix=[0                  0                  0| 0                  0                  0| 0                  0                  0|]
New Line.m1108464_l3102286 Phases=1 bus1=m1108464.2 bus2=l3102286.2 Units=km Length=0.10745557 Rmatrix=0.95896 Xmatrix=0.54128 Cmatrix=0
New Line.l3102286_m1108433 Phases=1 bus1=l3102286.2 bus2=m1108433.2 Units=km Length=0.039047848 Rmatrix=0.95896 Xmatrix=0.54128 Cmatrix=0
New Line.f739845_293471 Phases=3 bus1=f739845.1.2.3 bus2=293471.1.2.3 Units=km Length=0.03048 Rmatrix=[ 1.68340000001     0.138323999999     0.142669000001| 0.138323999999            1.67686     0.139294000001| 0.142669000001     0.139294000001            1.68543|] Xmatrix=[0.927300000002           0.432623     0.412252999999|       0.432623     0.932728000005     0.450469000002| 0.412252999999     0.450469000002     0.925636999998|] Cmatrix=[0                  0                  0| 0                  0                  0| 0                  0                  0|]
New Line.p827499_n1139254 Phases=1 bus1=p827499.1 bus2=n1139254.1 Units=km Length=0.006376053 Rmatrix=1.67466 Xmatrix=0.93456 Cmatrix=0
New Line.n1139254_l3122811 Phases=1 bus1=n1139254.1 bus2=l3122811.1 Units=km Length=0.027610038 Rmatrix=1.67466 Xmatrix=0.93456 Cmatrix=0
New Line.m1026657_m1026656 Phases=1 bus1=m1026657.1 bus2=m1026656.1 Units=km Length=0.006010467 Rmatrix=1.67466 Xmatrix=0.93456 Cmatrix=0
New Line.m1026656_l2729428 Phases=1 bus1=m1026656.1 bus2=l2729428.1 Units=km Length=0.18657858 Rmatrix=1.67466 Xmatrix=0.93456 Cmatrix=0
New Line.m1108299_m1108300 Phases=1 bus1=m1108299.2 bus2=m1108300.2 Units=km Length=0.006796901 Rmatrix=1.67466 Xmatrix=0.93456 Cmatrix=0
New Line.m1108300_l2711234 Phases=1 bus1=m1108300.2 bus2=l2711234.2 Units=km Length=0.071107595 Rmatrix=1.67466 Xmatrix=0.93456 Cmatrix=0
New Line.l3198355_l2805037 Phases=1 bus1=l3198355.2 bus2=l2805037.2 Units=km Length=0.11081571 Rmatrix=1.63382 Xmatrix=0.89683 Cmatrix=0
New Line.n1137994_m1069484 Phases=1 bus1=n1137994.3 bus2=m1069484.3 Units=km Length=0.05637094 Rmatrix=1.63124 Xmatrix=0.898979 Cmatrix=0
New Line.m1069484_l2785517 Phases=1 bus1=m1069484.3 bus2=l2785517.3 Units=km Length=0.12453924 Rmatrix=1.63124 Xmatrix=0.898979 Cmatrix=0
New Line.l2860504_l2860493 Phases=1 bus1=l2860504.1 bus2=l2860493.1 Units=km Length=0.20838125 Rmatrix=1.1223 Xmatrix=0.896365 Cmatrix=0
New Line.l2860493_l3085403 Phases=1 bus1=l2860493.1 bus2=l3085403.1 Units=km Length=0.087609574 Rmatrix=1.1223 Xmatrix=0.896365 Cmatrix=0
New Line.m1026783_m1026780 Phases=3 bus1=m1026783.1.2.3 bus2=m1026780.1.2.3 Units=km Length=0.017916335 Rmatrix=[ 1.68626           0.141078           0.145566| 0.141078             1.6795            0.14208| 0.145566            0.14208            1.68836|] Xmatrix=[0.924965999999           0.430359           0.409898|       0.430359           0.930531           0.448185|       0.409898           0.448185     0.923260999998|] Cmatrix=[0                  0                  0| 0                  0                  0| 0                  0                  0|]
New Line.m1026783_n1140524 Phases=1 bus1=m1026783.1 bus2=n1140524.1 Units=km Length=0.029322117 Rmatrix=1.1223 Xmatrix=0.896365 Cmatrix=0
New Line.m1026783_m1026784 Phases=1 bus1=m1026783.3 bus2=m1026784.3 Units=km Length=0.008151386 Rmatrix=1.67466 Xmatrix=0.93456 Cmatrix=0
New Line.m1026780_m1026774 Phases=3 bus1=m1026780.1.2.3 bus2=m1026774.1.2.3 Units=km Length=0.10707341 Rmatrix=[ 1.68626           0.141078           0.145566| 0.141078             1.6795            0.14208| 0.145566            0.14208            1.68836|] Xmatrix=[0.924966           0.430359           0.409898| 0.430359           0.930531           0.448185| 0.409898           0.448185           0.923261|] Cmatrix=[0                  0                  0| 0                  0                  0| 0                  0                  0|]
New Line.p895111_l2895496 Phases=1 bus1=p895111.3 bus2=l2895496.3 Units=km Length=0.069855343 Rmatrix=1.1223 Xmatrix=0.896365 Cmatrix=0
New Line.l2895496_m1142873 Phases=1 bus1=l2895496.3 bus2=m1142873.3 Units=km Length=0.050561264 Rmatrix=1.1223 Xmatrix=0.896365 Cmatrix=0
New Line.n1140819_m1026700 Phases=3 bus1=n1140819.1.2.3 bus2=m1026700.1.2.3 Units=km Length=0.026930613 Rmatrix=[ 1.68626           0.141078           0.145566| 0.141078             1.6795            0.14208| 0.145566            0.14208            1.68836|] Xmatrix=[0.924966000001           0.430359           0.409898|       0.430359     0.930531000001           0.448185|       0.409898           0.448185     0.923261000001|] Cmatrix=[0                  0                  0| 0                  0                  0| 0                  0                  0|]
New Line.m1026700_m1026706 Phases=3 bus1=m1026700.1.2.3 bus2=m1026706.1.2.3 Units=km Length=0.08550029 Rmatrix=[       1.68626           0.141078     0.145566000001|       0.141078             1.6795     0.142080000002| 0.145566000001     0.142080000002      1.68836000001|] Xmatrix=[      0.924966     0.430359000001           0.409898| 0.430359000001     0.930530999999     0.448185000002|       0.409898     0.448185000002     0.923260999996|] Cmatrix=[0                  0                  0| 0                  0                  0| 0                  0                  0|]
New Line.m1026700_n1140823 Phases=3 bus1=m1026700.1.2.3 bus2=n1140823.1.2.3 Units=km Length=0.037008228 Rmatrix=[  1.6834           0.138324           0.142669| 0.138324            1.67686           0.139294| 0.142669           0.139294            1.68543|] Xmatrix=[        0.9273           0.432623     0.412252999999|       0.432623           0.932728           0.450469| 0.412252999999           0.450469     0.925637000002|] Cmatrix=[0                  0                  0| 0                  0                  0| 0                  0                  0|]
New Line.m1026700_n1140820 Phases=1 bus1=m1026700.2 bus2=n1140820.2 Units=km Length=0.02212507 Rmatrix=1.67466 Xmatrix=0.93456 Cmatrix=0
New Line.m1026700_n1140821 Phases=1 bus1=m1026700.3 bus2=n1140821.3 Units=km Length=0.011150478 Rmatrix=1.67357 Xmatrix=0.893131 Cmatrix=0
New Line.m1089173_l2935551 Phases=1 bus1=m1089173.3 bus2=l2935551.3 Units=km Length=0.060857652 Rmatrix=1.63382 Xmatrix=0.89683 Cmatrix=0
New Line.m1089173_m1089174 Phases=1 bus1=m1089173.3 bus2=m1089174.3 Units=km Length=0.029566075 Rmatrix=1.67723 Xmatrix=0.932411 Cmatrix=0
New Line.m1089173_l2673307 Phases=1 bus1=m1089173.3 bus2=l2673307.3 Units=km Length=0.084087684 Rmatrix=1.63382 Xmatrix=0.89683 Cmatrix=0
New Line.l2935551_d5746546_1_int Phases=1 bus1=l2935551.3 bus2=d5746546_1_int.3 Units=km Length=0.032040317 Rmatrix=1.63382 Xmatrix=0.89683 Cmatrix=0
New Line.m1026344_m1026364 Phases=1 bus1=m1026344.1 bus2=m1026364.1 Units=km Length=0.29464985 Rmatrix=1.1223 Xmatrix=0.896365 Cmatrix=0
New Line.m1026344_l2991919 Phases=1 bus1=m1026344.1 bus2=l2991919.1 Units=km Length=0.12915597 Rmatrix=1.63124 Xmatrix=0.898979 Cmatrix=0
New Line.m1026364_l3010570 Phases=1 bus1=m1026364.1 bus2=l3010570.1 Units=km Length=0.059756623 Rmatrix=1.1223 Xmatrix=0.896365 Cmatrix=0
New Line.l2879070_l3216345 Phases=3 bus1=l2879070.1.2.3 bus2=l3216345.1.2.3 Units=km Length=0.089300859 Rmatrix=[ 0.66087           0.137499           0.142066| 0.137499           0.653999           0.138518| 0.142066           0.138518           0.663007|] Xmatrix=[0.869947           0.388579           0.366115| 0.388579           0.878528           0.405953| 0.366115           0.405953             0.8673|] Cmatrix=[0                  0                  0| 0                  0                  0| 0                  0                  0|]
New Line.l3216345_m3768670 Phases=3 bus1=l3216345.1.2.3 bus2=m3768670.1.2.3 Units=km Length=0.075804756 Rmatrix=[ 0.66087           0.137499           0.142066| 0.137499           0.653999           0.138518| 0.142066           0.138518           0.663007|] Xmatrix=[0.869947           0.388579           0.366115| 0.388579           0.878528           0.405953| 0.366115           0.405953             0.8673|] Cmatrix=[0                  0                  0| 0                  0                  0| 0                  0                  0|]
New Line.m1069428_m1069424 Phases=3 bus1=m1069428.1.2.3 bus2=m1069424.1.2.3 Units=km Length=0.076660914 Rmatrix=[       0.66087     0.137499000001           0.142066| 0.137499000001           0.653999           0.138518|       0.142066           0.138518           0.663007|] Xmatrix=[0.869947           0.388579           0.366115| 0.388579     0.878528000001           0.405953| 0.366115           0.405953             0.8673|] Cmatrix=[0                  0                  0| 0                  0                  0| 0                  0                  0|]
New Line.m1069428_n1139257 Phases=1 bus1=m1069428.2 bus2=n1139257.2 Units=km Length=0.016476581 Rmatrix=1.03207 Xmatrix=0.801436 Cmatrix=0
New Line.m1069428_p827576 Phases=1 bus1=m1069428.2 bus2=p827576.2 Units=km Length=0.009510015 Rmatrix=1.1223 Xmatrix=0.896365 Cmatrix=0
New Line.n1139257_l3029518 Phases=1 bus1=n1139257.2 bus2=l3029518.2 Units=km Length=0.027258449 Rmatrix=1.03207 Xmatrix=0.801436 Cmatrix=0
New Line.l2991919_m1026361 Phases=1 bus1=l2991919.1 bus2=m1026361.1 Units=km Length=0.085291161 Rmatrix=1.63124 Xmatrix=0.898979 Cmatrix=0
New Line.m1026361_l3122825 Phases=1 bus1=m1026361.1 bus2=l3122825.1 Units=km Length=0.018467859 Rmatrix=1.03207 Xmatrix=0.801436 Cmatrix=0
New Line.m1026361_m1026366 Phases=1 bus1=m1026361.1 bus2=m1026366.1 Units=km Length=0.069964337 Rmatrix=1.63124 Xmatrix=0.898979 Cmatrix=0
New Line.n1147857_m1009742 Phases=1 bus1=n1147857.1 bus2=m1009742.1 Units=km Length=0.054752983 Rmatrix=1.67466 Xmatrix=0.93456 Cmatrix=0
New Line.m1009742_p901972 Phases=1 bus1=m1009742.1 bus2=p901972.1 Units=km Length=0.011964648 Rmatrix=1.63382 Xmatrix=0.89683 Cmatrix=0
New Line.q14412_m1047325 Phases=3 bus1=q14412.1.2.3 bus2=m1047325.1.2.3 Units=km Length=0.033944982 Rmatrix=[ 1.68339999995     0.138323999997     0.142668999995| 0.138323999997            1.67686     0.139294000006| 0.142668999995     0.139294000006      1.68542999999|] Xmatrix=[0.927299999992     0.432622999986     0.412252999988| 0.432622999986     0.932727999989     0.450468999977| 0.412252999988     0.450468999977     0.925636999998|] Cmatrix=[0                  0                  0| 0                  0                  0| 0                  0                  0|]
New Line.m1047325_p827532 Phases=1 bus1=m1047325.1 bus2=p827532.1 Units=km Length=0.009630813 Rmatrix=1.1223 Xmatrix=0.896365 Cmatrix=0
New Line.m1047325_m1047324 Phases=3 bus1=m1047325.1.2.3 bus2=m1047324.1.2.3 Units=km Length=0.009183718 Rmatrix=[  1.6834           0.138324           0.142669| 0.138324            1.67686           0.139294| 0.142669           0.139294            1.68543|] Xmatrix=[  0.9273           0.432623           0.412253| 0.432623           0.932728           0.450469| 0.412253           0.450469     0.925636999999|] Cmatrix=[0                  0                  0| 0                  0                  0| 0                  0                  0|]
New Line.n1139263_l3048227 Phases=1 bus1=n1139263.1 bus2=l3048227.1 Units=km Length=0.025986896 Rmatrix=1.67466 Xmatrix=0.93456 Cmatrix=0
New Line.p827506_m1069469 Phases=1 bus1=p827506.1 bus2=m1069469.1 Units=km Length=0.007050168 Rmatrix=1.67466 Xmatrix=0.93456 Cmatrix=0
New Line.m1069469_n1139263 Phases=1 bus1=m1069469.1 bus2=n1139263.1 Units=km Length=0.008271348 Rmatrix=1.67466 Xmatrix=0.93456 Cmatrix=0
New Line.m1069469_m1069467 Phases=1 bus1=m1069469.1 bus2=m1069467.1 Units=km Length=0.021347852 Rmatrix=1.1223 Xmatrix=0.896365 Cmatrix=0
New Line.m1027019_l2785522 Phases=1 bus1=m1027019.2 bus2=l2785522.2 Units=km Length=0.060390635 Rmatrix=1.1223 Xmatrix=0.896365 Cmatrix=0
New Line.m1027019_l2801949 Phases=1 bus1=m1027019.2 bus2=l2801949.2 Units=km Length=0.20531206 Rmatrix=1.1223 Xmatrix=0.896365 Cmatrix=0
New Line.l3216338_l2973146 Phases=1 bus1=l3216338.2 bus2=l2973146.2 Units=km Length=0.058581136 Rmatrix=1.1223 Xmatrix=0.896365 Cmatrix=0
New Line.m3037452_l2973164 Phases=1 bus1=m3037452.1 bus2=l2973164.1 Units=km Length=0.071451786 Rmatrix=1.67466 Xmatrix=0.93456 Cmatrix=0
New Line.m3037452_m1026387 Phases=1 bus1=m3037452.1 bus2=m1026387.1 Units=km Length=0.11890115 Rmatrix=1.63382 Xmatrix=0.89683 Cmatrix=0
New Line.l3120376_m1026925 Phases=1 bus1=l3120376.1 bus2=m1026925.1 Units=km Length=0.089332548 Rmatrix=1.67723 Xmatrix=0.932411 Cmatrix=0
New Line.m1026925_l2916599 Phases=1 bus1=m1026925.1 bus2=l2916599.1 Units=km Length=0.015576555 Rmatrix=1.67466 Xmatrix=0.93456 Cmatrix=0
New Line.m1026925_l3235249 Phases=1 bus1=m1026925.1 bus2=l3235249.1 Units=km Length=0.11031413 Rmatrix=1.67723 Xmatrix=0.932411 Cmatrix=0
New Line.m1047612_p828360 Phases=1 bus1=m1047612.3 bus2=p828360.3 Units=km Length=0.005371644 Rmatrix=0.95896 Xmatrix=0.54128 Cmatrix=0
New Line.p828360_l2729206 Phases=1 bus1=p828360.3 bus2=l2729206.3 Units=km Length=0.031497899 Rmatrix=0.95896 Xmatrix=0.54128 Cmatrix=0
New Line.m1089195_l3141393 Phases=1 bus1=m1089195.3 bus2=l3141393.3 Units=km Length=0.11273397 Rmatrix=1.1223 Xmatrix=0.896365 Cmatrix=0
New Line.m1026946_m1026940 Phases=1 bus1=m1026946.2 bus2=m1026940.2 Units=km Length=0.12856984 Rmatrix=1.67466 Xmatrix=0.93456 Cmatrix=0
New Line.m1026940_m1026935 Phases=1 bus1=m1026940.2 bus2=m1026935.2 Units=km Length=0.11485633 Rmatrix=1.1223 Xmatrix=0.896365 Cmatrix=0
New Line.m1026940_m1026939 Phases=1 bus1=m1026940.2 bus2=m1026939.2 Units=km Length=0.065812905 Rmatrix=1.67466 Xmatrix=0.93456 Cmatrix=0
New Line.m1047471_l3216349 Phases=1 bus1=m1047471.2 bus2=l3216349.2 Units=km Length=0.0183997 Rmatrix=1.1223 Xmatrix=0.896365 Cmatrix=0
New Line.m1047471_l2879077 Phases=1 bus1=m1047471.2 bus2=l2879077.2 Units=km Length=0.095479672 Rmatrix=1.1223 Xmatrix=0.896365 Cmatrix=0
New Line.m1047471_l2973180 Phases=1 bus1=m1047471.2 bus2=l2973180.2 Units=km Length=0.07616084 Rmatrix=1.1223 Xmatrix=0.896365 Cmatrix=0
New Line.m1047401_l2748132 Phases=1 bus1=m1047401.1 bus2=l2748132.1 Units=km Length=0.056056234 Rmatrix=1.67466 Xmatrix=0.93456 Cmatrix=0
New Line.m1047401_m1047403 Phases=1 bus1=m1047401.1 bus2=m1047403.1 Units=km Length=0.044195202 Rmatrix=1.1223 Xmatrix=0.896365 Cmatrix=0
New Line.l2748132_l2689726 Phases=1 bus1=l2748132.1 bus2=l2689726.1 Units=km Length=0.25628309 Rmatrix=1.67466 Xmatrix=0.93456 Cmatrix=0
New Line.l3122820_l3141398 Phases=1 bus1=l3122820.1 bus2=l3141398.1 Units=km Length=0.059408725 Rmatrix=1.1223 Xmatrix=0.896365 Cmatrix=0
New Line.m1108360_l3048968 Phases=1 bus1=m1108360.3 bus2=l3048968.3 Units=km Length=0.05497669 Rmatrix=1.67466 Xmatrix=0.93456 Cmatrix=0
New Line.l2801950_m1069224 Phases=1 bus1=l2801950.3 bus2=m1069224.3 Units=km Length=0.032899004 Rmatrix=1.58334 Xmatrix=0.798203 Cmatrix=0
New Line.m1069224_m1069218 Phases=1 bus1=m1069224.3 bus2=m1069218.3 Units=km Length=0.11962879 Rmatrix=1.67466 Xmatrix=0.93456 Cmatrix=0
New Line.m1069224_m1069226 Phases=1 bus1=m1069224.3 bus2=m1069226.3 Units=km Length=0.12318119 Rmatrix=1.63124 Xmatrix=0.898979 Cmatrix=0
New Line.l2766746_m1027073 Phases=1 bus1=l2766746.3 bus2=m1027073.3 Units=km Length=0.11047955 Rmatrix=1.1223 Xmatrix=0.896365 Cmatrix=0
New Line.m1027073_m1027071 Phases=1 bus1=m1027073.3 bus2=m1027071.3 Units=km Length=0.095826227 Rmatrix=1.1223 Xmatrix=0.896365 Cmatrix=0
New Line.m1027073_l2879089 Phases=1 bus1=m1027073.3 bus2=l2879089.3 Units=km Length=0.046282094 Rmatrix=1.1223 Xmatrix=0.896365 Cmatrix=0
New Line.m1027073_l3104118 Phases=1 bus1=m1027073.3 bus2=l3104118.3 Units=km Length=0.081689537 Rmatrix=1.1223 Xmatrix=0.896365 Cmatrix=0
New Line.m1142873_l3552667 Phases=1 bus1=m1142873.3 bus2=l3552667.3 Units=km Length=0.055319246 Rmatrix=1.1223 Xmatrix=0.896365 Cmatrix=0
New Line.m1069181_l2973151 Phases=1 bus1=m1069181.1 bus2=l2973151.1 Units=km Length=0.075432644 Rmatrix=1.67466 Xmatrix=0.93456 Cmatrix=0
New Line.m1069181_l2804253 Phases=1 bus1=m1069181.1 bus2=l2804253.1 Units=km Length=0.018383208 Rmatrix=1.1223 Xmatrix=0.896365 Cmatrix=0
New Line.m1069181_l2748146 Phases=1 bus1=m1069181.1 bus2=l2748146.1 Units=km Length=0.099231539 Rmatrix=1.67466 Xmatrix=0.93456 Cmatrix=0
New Line.l2973151_m1069187 Phases=1 bus1=l2973151.1 bus2=m1069187.1 Units=km Length=0.07676317 Rmatrix=1.67466 Xmatrix=0.93456 Cmatrix=0
New Line.l3179682_l2786274 Phases=1 bus1=l3179682.3 bus2=l2786274.3 Units=km Length=0.027728997 Rmatrix=1.67466 Xmatrix=0.93456 Cmatrix=0
New Line.l3066816_m1026667 Phases=1 bus1=l3066816.1 bus2=m1026667.1 Units=km Length=0.12146238 Rmatrix=1.1223 Xmatrix=0.896365 Cmatrix=0
New Line.m1026667_m1026661 Phases=1 bus1=m1026667.1 bus2=m1026661.1 Units=km Length=0.055290612 Rmatrix=1.1223 Xmatrix=0.896365 Cmatrix=0
New Line.m1108529_m1108532 Phases=3 bus1=m1108529.1.2.3 bus2=m1108532.1.2.3 Units=km Length=0.024808926 Rmatrix=[0.270019           0.109951           0.113538| 0.109951           0.264634           0.110747| 0.113538           0.110747           0.271698|] Xmatrix=[0.695974            0.33351           0.308271|  0.33351           0.708729           0.350259| 0.308271           0.350259           0.692021|] Cmatrix=[0                  0                  0| 0                  0                  0| 0                  0                  0|]
New Line.m1108529_p829796 Phases=1 bus1=m1108529.3 bus2=p829796.3 Units=km Length=0.006097707 Rmatrix=1.67466 Xmatrix=0.93456 Cmatrix=0
New Line.m1108532_m1108535 Phases=3 bus1=m1108532.1.2.3 bus2=m1108535.1.2.3 Units=km Length=0.09298428 Rmatrix=[0.270019           0.109951           0.113538| 0.109951           0.264634           0.110747| 0.113538           0.110747           0.271698|] Xmatrix=[0.695974            0.33351           0.308271|  0.33351           0.708729           0.350259| 0.308271           0.350259           0.692021|] Cmatrix=[0                  0                  0| 0                  0                  0| 0                  0                  0|]
New Line.m1108532_p895082 Phases=1 bus1=m1108532.2 bus2=p895082.2 Units=km Length=0.010911417 Rmatrix=1.11059 Xmatrix=0.847285 Cmatrix=0
New Line.l2766723_l3122822 Phases=1 bus1=l2766723.1 bus2=l3122822.1 Units=km Length=0.057158143 Rmatrix=1.67466 Xmatrix=0.93456 Cmatrix=0
New Line.l2673312_l3235247 Phases=1 bus1=l2673312.1 bus2=l3235247.1 Units=km Length=0.16625327 Rmatrix=1.1223 Xmatrix=0.896365 Cmatrix=0
New Line.m1166391_l3254873 Phases=1 bus1=m1166391.3 bus2=l3254873.3 Units=km Length=0.1061747 Rmatrix=1.63124 Xmatrix=0.898979 Cmatrix=0
New Line.m1166391_m1166394 Phases=1 bus1=m1166391.3 bus2=m1166394.3 Units=km Length=0.086352891 Rmatrix=1.67466 Xmatrix=0.93456 Cmatrix=0
New Line.l3254873_m1166393 Phases=1 bus1=l3254873.3 bus2=m1166393.3 Units=km Length=0.03392068 Rmatrix=1.63124 Xmatrix=0.898979 Cmatrix=0
New Line.l2861157_p901951 Phases=1 bus1=l2861157.3 bus2=p901951.3 Units=km Length=0.12134881 Rmatrix=1.1223 Xmatrix=0.896365 Cmatrix=0
New Line.p901951_m1186078 Phases=1 bus1=p901951.3 bus2=m1186078.3 Units=km Length=0.17544744 Rmatrix=1.63382 Xmatrix=0.89683 Cmatrix=0
New Line.m1047346_m1047345 Phases=3 bus1=m1047346.1.2.3 bus2=m1047345.1.2.3 Units=km Length=0.043145742 Rmatrix=[ 1.63999           0.138324           0.142669| 0.138324            1.63344           0.139294| 0.142669           0.139294            1.64202|] Xmatrix=[0.891719           0.432623           0.412253| 0.432623           0.897146           0.450469| 0.412253           0.450469           0.890056|] Cmatrix=[0                  0                  0| 0                  0                  0| 0                  0                  0|]
New Line.m1047346_l3254219 Phases=1 bus1=m1047346.3 bus2=l3254219.3 Units=km Length=0.040929984 Rmatrix=1.03207 Xmatrix=0.801436 Cmatrix=0
New Line.m1047345_m1047340 Phases=1 bus1=m1047345.1 bus2=m1047340.1 Units=km Length=0.087054844 Rmatrix=1.67466 Xmatrix=0.93456 Cmatrix=0
New Line.m1047345_l2991922 Phases=3 bus1=m1047345.1.2.3 bus2=l2991922.1.2.3 Units=km Length=0.054627261 Rmatrix=[ 1.63999           0.138324           0.142669| 0.138324            1.63344           0.139294| 0.142669           0.139294            1.64202|] Xmatrix=[0.891719           0.432623           0.412253| 0.432623           0.897146           0.450469| 0.412253           0.450469           0.890056|] Cmatrix=[0                  0                  0| 0                  0                  0| 0                  0                  0|]
New Line.l2989596_l2822873 Phases=1 bus1=l2989596.2 bus2=l2822873.2 Units=km Length=0.088615313 Rmatrix=1.63124 Xmatrix=0.898979 Cmatrix=0
New Line.m1108328_l2875754 Phases=1 bus1=m1108328.3 bus2=l2875754.3 Units=km Length=0.021267162 Rmatrix=1.1223 Xmatrix=0.896365 Cmatrix=0
New Line.m1108328_l2767414 Phases=1 bus1=m1108328.3 bus2=l2767414.3 Units=km Length=0.03644873 Rmatrix=1.1223 Xmatrix=0.896365 Cmatrix=0
New Line.m1108328_l3160878 Phases=1 bus1=m1108328.3 bus2=l3160878.3 Units=km Length=0.20874377 Rmatrix=1.67466 Xmatrix=0.93456 Cmatrix=0
New Line.l2786204_m1209819 Phases=1 bus1=l2786204.3 bus2=m1209819.3 Units=km Length=0.072043559 Rmatrix=1.67466 Xmatrix=0.93456 Cmatrix=0
New Line.m1209819_l2936216 Phases=1 bus1=m1209819.3 bus2=l2936216.3 Units=km Length=0.049975742 Rmatrix=1.67466 Xmatrix=0.93456 Cmatrix=0
New Line.p901972_m1009726 Phases=1 bus1=p901972.1 bus2=m1009726.1 Units=km Length=0.090083252 Rmatrix=1.63382 Xmatrix=0.89683 Cmatrix=0
New Line.m1009726_l3101789 Phases=1 bus1=m1009726.1 bus2=l3101789.1 Units=km Length=0.039114934 Rmatrix=1.16232 Xmatrix=0.900036 Cmatrix=0
New Line.m1009726_m1009724 Phases=1 bus1=m1009726.1 bus2=m1009724.1 Units=km Length=0.072739184 Rmatrix=1.63382 Xmatrix=0.89683 Cmatrix=0
New Line.m1047702_n1137002 Phases=1 bus1=m1047702.1 bus2=n1137002.1 Units=km Length=0.018939349 Rmatrix=1.1223 Xmatrix=0.896365 Cmatrix=0
New Line.m1047702_n1137001 Phases=1 bus1=m1047702.1 bus2=n1137001.1 Units=km Length=0.042663027 Rmatrix=1.1223 Xmatrix=0.896365 Cmatrix=0
New Line.n1137001_l2929261 Phases=1 bus1=n1137001.1 bus2=l2929261.1 Units=km Length=0.049633591 Rmatrix=1.1223 Xmatrix=0.896365 Cmatrix=0
New Line.l2767340_m3037449 Phases=3 bus1=l2767340.1.2.3 bus2=m3037449.1.2.3 Units=km Length=0.5937451 Rmatrix=[ 1.64285           0.141078           0.145566| 0.141078            1.63609            0.14208| 0.145566            0.14208            1.64495|] Xmatrix=[0.889385           0.430359           0.409898| 0.430359            0.89495           0.448185| 0.409898           0.448185     0.887680000001|] Cmatrix=[0                  0                  0| 0                  0                  0| 0                  0                  0|]
New Line.m3037449_m1108375 Phases=1 bus1=m3037449.3 bus2=m1108375.3 Units=km Length=0.018370264 Rmatrix=1.1223 Xmatrix=0.896365 Cmatrix=0
New Line.m1047457_l2710546 Phases=1 bus1=m1047457.2 bus2=l2710546.2 Units=km Length=0.040119548 Rmatrix=1.1223 Xmatrix=0.896365 Cmatrix=0
New Line.m1047457_l3139086 Phases=1 bus1=m1047457.2 bus2=l3139086.2 Units=km Length=0.067038007 Rmatrix=1.1223 Xmatrix=0.896365 Cmatrix=0
New Line.l2710546_m4362181 Phases=1 bus1=l2710546.2 bus2=m4362181.2 Units=km Length=0.025897479 Rmatrix=1.1223 Xmatrix=0.896365 Cmatrix=0
New Line.l2674027_l2692633 Phases=3 bus1=l2674027.1.2.3 bus2=l2692633.1.2.3 Units=km Length=0.067881777 Rmatrix=[0.270019           0.109951           0.113538| 0.109951           0.264634           0.110747| 0.113538           0.110747           0.271698|] Xmatrix=[0.695974            0.33351           0.308271|  0.33351           0.708729           0.350259| 0.308271           0.350259           0.692021|] Cmatrix=[0                  0                  0| 0                  0                  0| 0                  0                  0|]
New Line.l2692633_regxfmr_190_8581 Phases=3 bus1=l2692633.1.2.3 bus2=regxfmr_190_8581.1.2.3 Units=km Length=0.039970119 Rmatrix=[0.270019           0.109951           0.113538| 0.109951           0.264634           0.110747| 0.113538           0.110747           0.271698|] Xmatrix=[      0.695974            0.33351     0.308271000001|        0.33351     0.708728999999     0.350259000001| 0.308271000001     0.350259000001     0.692021000001|] Cmatrix=[0                  0                  0| 0                  0                  0| 0                  0                  0|]
New Line.n1142108_l2674051 Phases=1 bus1=n1142108.1 bus2=l2674051.1 Units=km Length=0.073678618 Rmatrix=1.1223 Xmatrix=0.896365 Cmatrix=0
New Line.m1069135_r18242 Phases=3 bus1=m1069135.1.2.3 bus2=r18242.1.2.3 Units=km Length=0.070990263 Rmatrix=[ 1.64285           0.141078           0.145566| 0.141078            1.63609            0.14208| 0.145566            0.14208            1.64495|] Xmatrix=[0.889385           0.430359           0.409898| 0.430359            0.89495           0.448185| 0.409898           0.448185            0.88768|] Cmatrix=[0                  0                  0| 0                  0                  0| 0                  0                  0|]
New Line.m1069135_n1139539 Phases=1 bus1=m1069135.1 bus2=n1139539.1 Units=km Length=0.028892002 Rmatrix=1.67723 Xmatrix=0.932411 Cmatrix=0
New Line.m1069135_p827533 Phases=1 bus1=m1069135.2 bus2=p827533.2 Units=km Length=0.011116026 Rmatrix=1.67466 Xmatrix=0.93456 Cmatrix=0
New Line.r18242_l3254218 Phases=3 bus1=r18242.1.2.3 bus2=l3254218.1.2.3 Units=km Length=0.037866233 Rmatrix=[  1.6834           0.138324           0.142669| 0.138324            1.67686           0.139294| 0.142669           0.139294            1.68543|] Xmatrix=[  0.9273           0.432623           0.412253| 0.432623           0.932728           0.450469| 0.412253           0.450469           0.925637|] Cmatrix=[0                  0                  0| 0                  0                  0| 0                  0                  0|]
New Line.m1047534_n1136663 Phases=3 bus1=m1047534.1.2.3 bus2=n1136663.1.2.3 Units=km Length=0.11473566 Rmatrix=[0.660870000001           0.137499           0.142066|       0.137499           0.653999           0.138518|       0.142066           0.138518     0.663006999999|] Xmatrix=[0.869947000001           0.388579           0.366115|       0.388579           0.878528     0.405952999999|       0.366115     0.405952999999             0.8673|] Cmatrix=[0                  0                  0| 0                  0                  0| 0                  0                  0|]
New Line.m1047534_n1136660 Phases=1 bus1=m1047534.1 bus2=n1136660.1 Units=km Length=0.009934942 Rmatrix=1.1223 Xmatrix=0.896365 Cmatrix=0
New Line.m1047534_n1136661 Phases=1 bus1=m1047534.3 bus2=n1136661.3 Units=km Length=0.007905941 Rmatrix=1.1223 Xmatrix=0.896365 Cmatrix=0
New Line.n1136663_m1047522 Phases=3 bus1=n1136663.1.2.3 bus2=m1047522.1.2.3 Units=km Length=0.047309655 Rmatrix=[ 0.66087           0.137499           0.142066| 0.137499           0.653999           0.138518| 0.142066           0.138518           0.663007|] Xmatrix=[0.869947           0.388579           0.366115| 0.388579           0.878528           0.405953| 0.366115           0.405953             0.8673|] Cmatrix=[0                  0                  0| 0                  0                  0| 0                  0                  0|]
New Line.m1108508_l3097861 Phases=1 bus1=m1108508.3 bus2=l3097861.3 Units=km Length=0.091439774 Rmatrix=1.1223 Xmatrix=0.896365 Cmatrix=0
New Line.m1069560_m1069567 Phases=1 bus1=m1069560.2 bus2=m1069567.2 Units=km Length=0.081428218 Rmatrix=1.67466 Xmatrix=0.93456 Cmatrix=0
New Line.m1069560_l3176660 Phases=1 bus1=m1069560.2 bus2=l3176660.2 Units=km Length=0.088112702 Rmatrix=1.1223 Xmatrix=0.896365 Cmatrix=0
New Line.l2973153_n1136998 Phases=3 bus1=l2973153.1.2.3 bus2=n1136998.1.2.3 Units=km Length=0.010528536 Rmatrix=[ 1.64285           0.141078           0.145566| 0.141078            1.63609            0.14208| 0.145566            0.14208            1.64495|] Xmatrix=[0.889385           0.430359           0.409898| 0.430359     0.894950000002           0.448185| 0.409898           0.448185     0.887679999999|] Cmatrix=[0                  0                  0| 0                  0                  0| 0                  0                  0|]
New Line.n1136998_m1047669 Phases=3 bus1=n1136998.1.2.3 bus2=m1047669.1.2.3 Units=km Length=0.066828063 Rmatrix=[       1.64285           0.141078     0.145565999999|       0.141078            1.63609     0.142079999998| 0.145565999999     0.142079999998            1.64495|] Xmatrix=[0.889384999991           0.430359     0.409898000002|       0.430359     0.894950000003     0.448184999997| 0.409898000002     0.448184999997     0.887680000001|] Cmatrix=[0                  0                  0| 0                  0                  0| 0                  0                  0|]
New Line.l2898515_m1166387 Phases=1 bus1=l2898515.3 bus2=m1166387.3 Units=km Length=0.059605868 Rmatrix=1.67466 Xmatrix=0.93456 Cmatrix=0
New Line.m1166387_l3198347 Phases=1 bus1=m1166387.3 bus2=l3198347.3 Units=km Length=0.11685199 Rmatrix=1.67466 Xmatrix=0.93456 Cmatrix=0
New Line.m1166387_l3048946 Phases=1 bus1=m1166387.3 bus2=l3048946.3 Units=km Length=0.08543306 Rmatrix=1.67466 Xmatrix=0.93456 Cmatrix=0
New Line.m1047442_l3235250 Phases=1 bus1=m1047442.2 bus2=l3235250.2 Units=km Length=0.064500287 Rmatrix=1.63382 Xmatrix=0.89683 Cmatrix=0
New Line.m1047442_m1047444 Phases=1 bus1=m1047442.2 bus2=m1047444.2 Units=km Length=0.068829483 Rmatrix=1.63124 Xmatrix=0.898979 Cmatrix=0
New Line.m1142871_m1142874 Phases=3 bus1=m1142871.1.2.3 bus2=m1142874.1.2.3 Units=km Length=0.038152689 Rmatrix=[0.270019           0.109951           0.113538| 0.109951           0.264634           0.110747| 0.113538           0.110747           0.271698|] Xmatrix=[0.695974            0.33351           0.308271|  0.33351           0.708729           0.350259| 0.308271           0.350259     0.692021000001|] Cmatrix=[0                  0                  0| 0                  0                  0| 0                  0                  0|]
New Line.m1142871_p829956 Phases=1 bus1=m1142871.3 bus2=p829956.3 Units=km Length=0.005939628 Rmatrix=1.63382 Xmatrix=0.89683 Cmatrix=0
New Line.m1142874_m1142875 Phases=3 bus1=m1142874.1.2.3 bus2=m1142875.1.2.3 Units=km Length=0.054959007 Rmatrix=[0.270019           0.109951           0.113538| 0.109951           0.264634           0.110747| 0.113538           0.110747           0.271698|] Xmatrix=[0.695974            0.33351           0.308271|  0.33351           0.708729           0.350259| 0.308271           0.350259           0.692021|] Cmatrix=[0                  0                  0| 0                  0                  0| 0                  0                  0|]
New Line.m1142874_p895111 Phases=1 bus1=m1142874.3 bus2=p895111.3 Units=km Length=0.008075879 Rmatrix=1.1223 Xmatrix=0.896365 Cmatrix=0
New Line.l2955081_m1108315 Phases=3 bus1=l2955081.1.2.3 bus2=m1108315.1.2.3 Units=km Length=0.094684869 Rmatrix=[0.270019           0.109951           0.113538| 0.109951           0.264634           0.110747| 0.113538           0.110747           0.271698|] Xmatrix=[0.695974            0.33351           0.308271|  0.33351           0.708729           0.350259| 0.308271           0.350259           0.692021|] Cmatrix=[0                  0                  0| 0                  0                  0| 0                  0                  0|]
New Line.m1108315_m1108311 Phases=3 bus1=m1108315.1.2.3 bus2=m1108311.1.2.3 Units=km Length=0.072202851 Rmatrix=[0.270019           0.109951           0.113538| 0.109951           0.264634           0.110747| 0.113538           0.110747           0.271698|] Xmatrix=[0.695974            0.33351           0.308271|  0.33351           0.708729           0.350259| 0.308271           0.350259           0.692021|] Cmatrix=[0                  0                  0| 0                  0                  0| 0                  0                  0|]
New Line.m1108315_n1230121 Phases=1 bus1=m1108315.3 bus2=n1230121.3 Units=km Length=0.009108856 Rmatrix=1.67466 Xmatrix=0.93456 Cmatrix=0
New Line.m1108315_p860843 Phases=1 bus1=m1108315.3 bus2=p860843.3 Units=km Length=0.011607495 Rmatrix=1.67466 Xmatrix=0.93456 Cmatrix=0
New Line.l2973162_m1026333 Phases=3 bus1=l2973162.1.2.3 bus2=m1026333.1.2.3 Units=km Length=0.053150629 Rmatrix=[ 1.63999           0.138324           0.142669| 0.138324            1.63344           0.139294| 0.142669           0.139294            1.64202|] Xmatrix=[0.891718999999           0.432623           0.412253|       0.432623           0.897146           0.450469|       0.412253           0.450469           0.890056|] Cmatrix=[0                  0                  0| 0                  0                  0| 0                  0                  0|]
New Line.m1026333_m1026331 Phases=3 bus1=m1026333.1.2.3 bus2=m1026331.1.2.3 Units=km Length=0.046120846 Rmatrix=[ 1.63999           0.138324           0.142669| 0.138324            1.63344           0.139294| 0.142669           0.139294            1.64202|] Xmatrix=[0.891719000001           0.432623           0.412253|       0.432623           0.897146           0.450469|       0.412253           0.450469           0.890056|] Cmatrix=[0                  0                  0| 0                  0                  0| 0                  0                  0|]
New Line.m1026333_n1145955 Phases=1 bus1=m1026333.1 bus2=n1145955.1 Units=km Length=0.013770656 Rmatrix=1.1223 Xmatrix=0.896365 Cmatrix=0
New Line.m1009832_l2860479 Phases=1 bus1=m1009832.2 bus2=l2860479.2 Units=km Length=0.036046786 Rmatrix=1.67466 Xmatrix=0.93456 Cmatrix=0
New Line.m1009832_m1009838 Phases=1 bus1=m1009832.2 bus2=m1009838.2 Units=km Length=0.095380068 Rmatrix=1.67466 Xmatrix=0.93456 Cmatrix=0
New Line.m1009832_m1009834 Phases=1 bus1=m1009832.2 bus2=m1009834.2 Units=km Length=0.047206181 Rmatrix=1.67466 Xmatrix=0.93456 Cmatrix=0
New Line.m1026854_p901894 Phases=1 bus1=m1026854.1 bus2=p901894.1 Units=km Length=0.005924616 Rmatrix=1.67466 Xmatrix=0.93456 Cmatrix=0
New Line.m1026854_m1026852 Phases=3 bus1=m1026854.1.2.3 bus2=m1026852.1.2.3 Units=km Length=0.13122769 Rmatrix=[0.660869999999           0.137499     0.142065999999|       0.137499           0.653999     0.138517999999| 0.142065999999     0.138517999999     0.663006999998|] Xmatrix=[0.869947           0.388579           0.366115| 0.388579     0.878528000001           0.405953| 0.366115           0.405953             0.8673|] Cmatrix=[0                  0                  0| 0                  0                  0| 0                  0                  0|]
New Line.p901894_m1026857 Phases=1 bus1=p901894.1 bus2=m1026857.1 Units=km Length=0.00749118 Rmatrix=1.67466 Xmatrix=0.93456 Cmatrix=0
New Line.m1026485_m1026492 Phases=1 bus1=m1026485.2 bus2=m1026492.2 Units=km Length=0.065907247 Rmatrix=1.1223 Xmatrix=0.896365 Cmatrix=0
New Line.m1026485_p827542 Phases=1 bus1=m1026485.2 bus2=p827542.2 Units=km Length=0.007368314 Rmatrix=1.1223 Xmatrix=0.896365 Cmatrix=0
New Line.m1026492_l3048231 Phases=1 bus1=m1026492.2 bus2=l3048231.2 Units=km Length=0.053601875 Rmatrix=1.1223 Xmatrix=0.896365 Cmatrix=0
New Line.d6413567_3_int_e182724 Phases=3 bus1=d6413567_3_int.1.2.3 bus2=e182724.1.2.3 Units=km Length=0.001 Rmatrix=[0.999999999995                  0                  0|              0                  1                  0|              0                  0                  1|] Xmatrix=[0.999999999998                  0                  0|              0     0.999999999996                  0|              0                  0      1.00000000001|] Cmatrix=[0                  0                  0| 0                  0                  0| 0                  0                  0|]
New Line.e182724_m1069169 Phases=3 bus1=e182724.1.2.3 bus2=m1069169.1.2.3 Units=km Length=0.092995455 Rmatrix=[ 1.68626000009     0.141078000016     0.145566000013| 0.141078000016      1.67950000001     0.142079999997| 0.145566000013     0.142079999997            1.68836|] Xmatrix=[0.924966000016     0.430359000039     0.409898000043| 0.430359000039     0.930530999991     0.448185000005| 0.409898000043     0.448185000005     0.923261000025|] Cmatrix=[0                  0                  0| 0                  0                  0| 0                  0                  0|]
New Line.n1139541_d6413567_3_int Phases=3 bus1=n1139541.1.2.3 bus2=d6413567_3_int.1.2.3 Units=km Length=0.014966786 Rmatrix=[       1.68626     0.141077999997     0.145565999999| 0.141077999997      1.67949999999     0.142080000001| 0.145565999999     0.142080000001      1.68836000001|] Xmatrix=[0.924965999999     0.430359000001     0.409898000005| 0.430359000001     0.930531000007     0.448185000006| 0.409898000005     0.448185000006     0.923261000002|] Cmatrix=[0                  0                  0| 0                  0                  0| 0                  0                  0|]
New Line.m4122658_l2933135 Phases=3 bus1=m4122658.1.2.3 bus2=l2933135.1.2.3 Units=km Length=0.5669181 Rmatrix=[0.270019           0.109951           0.113538| 0.109951           0.264634           0.110747| 0.113538           0.110747           0.271698|] Xmatrix=[0.695973999998            0.33351           0.308271|        0.33351           0.708729           0.350259|       0.308271           0.350259           0.692021|] Cmatrix=[0                  0                  0| 0                  0                  0| 0                  0                  0|]
New Line.l2933135_m1108484 Phases=3 bus1=l2933135.1.2.3 bus2=m1108484.1.2.3 Units=km Length=0.075107603 Rmatrix=[0.270019           0.109951           0.113538| 0.109951           0.264634           0.110747| 0.113538           0.110747           0.271698|] Xmatrix=[0.695974            0.33351           0.308271|  0.33351           0.708729           0.350259| 0.308271           0.350259           0.692021|] Cmatrix=[0                  0                  0| 0                  0                  0| 0                  0                  0|]
New Line.l2729430_l2766742 Phases=1 bus1=l2729430.2 bus2=l2766742.2 Units=km Length=0.10864125 Rmatrix=1.67466 Xmatrix=0.93456 Cmatrix=0
New Line.l2766742_m1009820 Phases=1 bus1=l2766742.2 bus2=m1009820.2 Units=km Length=0.090234048 Rmatrix=1.58334 Xmatrix=0.798203 Cmatrix=0
New Line.m1026972_l2860483 Phases=1 bus1=m1026972.2 bus2=l2860483.2 Units=km Length=0.060677138 Rmatrix=1.1223 Xmatrix=0.896365 Cmatrix=0
New Line.l2860483_l3141397 Phases=1 bus1=l2860483.2 bus2=l3141397.2 Units=km Length=0.076050673 Rmatrix=1.1223 Xmatrix=0.896365 Cmatrix=0
New Line.l2860490_l3104134 Phases=3 bus1=l2860490.1.2.3 bus2=l3104134.1.2.3 Units=km Length=0.063357888 Rmatrix=[  1.6834           0.138324           0.142669| 0.138324            1.67686           0.139294| 0.142669           0.139294            1.68543|] Xmatrix=[  0.9273           0.432623           0.412253| 0.432623           0.932728           0.450469| 0.412253           0.450469           0.925637|] Cmatrix=[0                  0                  0| 0                  0                  0| 0                  0                  0|]
New Line.l3104134_m1047346 Phases=3 bus1=l3104134.1.2.3 bus2=m1047346.1.2.3 Units=km Length=0.046491295 Rmatrix=[ 1.63999           0.138324           0.142669| 0.138324            1.63344           0.139294| 0.142669           0.139294            1.64202|] Xmatrix=[0.891719           0.432623           0.412253| 0.432623           0.897146           0.450469| 0.412253           0.450469           0.890056|] Cmatrix=[0                  0                  0| 0                  0                  0| 0                  0                  0|]
New Line.m1089144_p827522 Phases=1 bus1=m1089144.1 bus2=p827522.1 Units=km Length=0.002591741 Rmatrix=1.1223 Xmatrix=0.896365 Cmatrix=0
New Line.p827522_n1142111 Phases=1 bus1=p827522.1 bus2=n1142111.1 Units=km Length=0.010461249 Rmatrix=1.1223 Xmatrix=0.896365 Cmatrix=0
New Line.m1089118_l3048208 Phases=1 bus1=m1089118.1 bus2=l3048208.1 Units=km Length=0.045297024 Rmatrix=1.67723 Xmatrix=0.932411 Cmatrix=0
New Line.m1089118_m1089115 Phases=3 bus1=m1089118.1.2.3 bus2=m1089115.1.2.3 Units=km Length=0.16170829 Rmatrix=[ 1.68626           0.141078           0.145566| 0.141078             1.6795            0.14208| 0.145566            0.14208            1.68836|] Xmatrix=[0.924966           0.430359           0.409898| 0.430359           0.930531           0.448185| 0.409898           0.448185     0.923261000001|] Cmatrix=[0                  0                  0| 0                  0                  0| 0                  0                  0|]
New Line.m1089118_l2973158 Phases=1 bus1=m1089118.3 bus2=l2973158.3 Units=km Length=0.086251785 Rmatrix=1.67723 Xmatrix=0.932411 Cmatrix=0
New Line.m1108505_l2955047 Phases=3 bus1=m1108505.1.2.3 bus2=l2955047.1.2.3 Units=km Length=0.05456149 Rmatrix=[0.270019           0.109951           0.113538| 0.109951           0.264634           0.110747| 0.113538           0.110747           0.271698|] Xmatrix=[0.695974            0.33351           0.308271|  0.33351           0.708729           0.350259| 0.308271           0.350259           0.692021|] Cmatrix=[0                  0                  0| 0                  0                  0| 0                  0                  0|]
New Line.m1108505_p901946 Phases=1 bus1=m1108505.1 bus2=p901946.1 Units=km Length=0.003680698 Rmatrix=1.67466 Xmatrix=0.93456 Cmatrix=0
New Line.l2955047_l3179646 Phases=3 bus1=l2955047.1.2.3 bus2=l3179646.1.2.3 Units=km Length=0.047652144 Rmatrix=[0.270019           0.109951           0.113538| 0.109951           0.264634           0.110747| 0.113538           0.110747           0.271698|] Xmatrix=[0.695974            0.33351           0.308271|  0.33351           0.708729           0.350259| 0.308271           0.350259           0.692021|] Cmatrix=[0                  0                  0| 0                  0                  0| 0                  0                  0|]
New Line.m1089148_l2766721 Phases=1 bus1=m1089148.1 bus2=l2766721.1 Units=km Length=0.048405189 Rmatrix=1.58334 Xmatrix=0.798203 Cmatrix=0
New Line.m1089148_l2991906 Phases=1 bus1=m1089148.1 bus2=l2991906.1 Units=km Length=0.15747018 Rmatrix=1.67466 Xmatrix=0.93456 Cmatrix=0
New Line.m1026745_l3029183 Phases=1 bus1=m1026745.2 bus2=l3029183.2 Units=km Length=0.091016527 Rmatrix=1.1223 Xmatrix=0.896365 Cmatrix=0
New Line.l2710512_m1047828 Phases=1 bus1=l2710512.2 bus2=m1047828.2 Units=km Length=0.14521686 Rmatrix=1.67466 Xmatrix=0.93456 Cmatrix=0
New Line.m1047828_l2710513 Phases=1 bus1=m1047828.2 bus2=l2710513.2 Units=km Length=0.097674448 Rmatrix=1.67466 Xmatrix=0.93456 Cmatrix=0
New Line.m1047828_l2954346 Phases=1 bus1=m1047828.2 bus2=l2954346.2 Units=km Length=0.020406482 Rmatrix=1.67466 Xmatrix=0.93456 Cmatrix=0
New Line.m1047342_l3197645 Phases=1 bus1=m1047342.1 bus2=l3197645.1 Units=km Length=0.073698058 Rmatrix=1.1223 Xmatrix=0.896365 Cmatrix=0
New Line.m1069192_l3235253 Phases=1 bus1=m1069192.1 bus2=l3235253.1 Units=km Length=0.081541574 Rmatrix=1.1223 Xmatrix=0.896365 Cmatrix=0
New Line.m1069192_m1069191 Phases=1 bus1=m1069192.1 bus2=m1069191.1 Units=km Length=0.055093178 Rmatrix=1.67466 Xmatrix=0.93456 Cmatrix=0
New Line.m1069192_l2991913 Phases=1 bus1=m1069192.1 bus2=l2991913.1 Units=km Length=0.092516396 Rmatrix=1.67466 Xmatrix=0.93456 Cmatrix=0
New Line.l3214071_m1125952 Phases=3 bus1=l3214071.1.2.3 bus2=m1125952.1.2.3 Units=km Length=0.053927476 Rmatrix=[0.270019           0.109951           0.113538| 0.109951           0.264634           0.110747| 0.113538           0.110747           0.271698|] Xmatrix=[0.695974            0.33351           0.308271|  0.33351           0.708729           0.350259| 0.308271           0.350259     0.692021000001|] Cmatrix=[0                  0                  0| 0                  0                  0| 0                  0                  0|]
New Line.m1125952_l3214069 Phases=3 bus1=m1125952.1.2.3 bus2=l3214069.1.2.3 Units=km Length=0.012769078 Rmatrix=[0.270019           0.109951           0.113538| 0.109951           0.264634           0.110747| 0.113538           0.110747           0.271698|] Xmatrix=[0.695974            0.33351           0.308271|  0.33351           0.708729           0.350259| 0.308271           0.350259           0.692021|] Cmatrix=[0                  0                  0| 0                  0                  0| 0                  0                  0|]
New Line.m1125952_p901936 Phases=1 bus1=m1125952.3 bus2=p901936.3 Units=km Length=0.005494449 Rmatrix=1.63382 Xmatrix=0.89683 Cmatrix=0
New Line.m1027101_l2860480 Phases=1 bus1=m1027101.2 bus2=l2860480.2 Units=km Length=0.16390608 Rmatrix=1.1223 Xmatrix=0.896365 Cmatrix=0
New Line.m1027101_l2710508 Phases=1 bus1=m1027101.2 bus2=l2710508.2 Units=km Length=0.003622345 Rmatrix=1.1223 Xmatrix=0.896365 Cmatrix=0
New Line.l2710517_m1026646 Phases=1 bus1=l2710517.1 bus2=m1026646.1 Units=km Length=0.048809326 Rmatrix=1.67466 Xmatrix=0.93456 Cmatrix=0
New Line.m1026646_l3178978 Phases=1 bus1=m1026646.1 bus2=l3178978.1 Units=km Length=0.1966651 Rmatrix=1.67466 Xmatrix=0.93456 Cmatrix=0
New Line.m1026646_n1139549 Phases=1 bus1=m1026646.1 bus2=n1139549.1 Units=km Length=0.051832453 Rmatrix=1.1223 Xmatrix=0.896365 Cmatrix=0
New Line.m1069662_l2935547 Phases=1 bus1=m1069662.2 bus2=l2935547.2 Units=km Length=0.061176171 Rmatrix=1.1223 Xmatrix=0.896365 Cmatrix=0
New Line.m1026931_l3216336 Phases=1 bus1=m1026931.1 bus2=l3216336.1 Units=km Length=0.049186375 Rmatrix=1.67466 Xmatrix=0.93456 Cmatrix=0
New Line.m1026931_l3216337 Phases=1 bus1=m1026931.1 bus2=l3216337.1 Units=km Length=0.056331403 Rmatrix=1.1223 Xmatrix=0.896365 Cmatrix=0
New Line.l3216336_l2691936 Phases=1 bus1=l3216336.1 bus2=l2691936.1 Units=km Length=0.066949476 Rmatrix=1.67466 Xmatrix=0.93456 Cmatrix=0
New Line.l3142049_m1108493 Phases=3 bus1=l3142049.1.2.3 bus2=m1108493.1.2.3 Units=km Length=0.084670171 Rmatrix=[0.270019           0.109951           0.113538| 0.109951           0.264634           0.110747| 0.113538           0.110747           0.271698|] Xmatrix=[0.695974            0.33351           0.308271|  0.33351           0.708729           0.350259| 0.308271           0.350259           0.692021|] Cmatrix=[0                  0                  0| 0                  0                  0| 0                  0                  0|]
New Line.m1108493_n1142103 Phases=3 bus1=m1108493.1.2.3 bus2=n1142103.1.2.3 Units=km Length=0.037206297 Rmatrix=[0.270019           0.109951           0.113538| 0.109951           0.264634           0.110747| 0.113538           0.110747           0.271698|] Xmatrix=[0.695974            0.33351           0.308271|  0.33351           0.708729           0.350259| 0.308271           0.350259           0.692021|] Cmatrix=[0                  0                  0| 0                  0                  0| 0                  0                  0|]
New Line.m1069169_l3010556 Phases=3 bus1=m1069169.1.2.3 bus2=l3010556.1.2.3 Units=km Length=0.073355839 Rmatrix=[ 1.68626           0.141078           0.145566| 0.141078             1.6795            0.14208| 0.145566            0.14208            1.68836|] Xmatrix=[0.924966000001           0.430359           0.409898|       0.430359           0.930531           0.448185|       0.409898           0.448185           0.923261|] Cmatrix=[0                  0                  0| 0                  0                  0| 0                  0                  0|]
New Line.m1069169_p827508 Phases=1 bus1=m1069169.1 bus2=p827508.1 Units=km Length=0.011234484 Rmatrix=1.67466 Xmatrix=0.93456 Cmatrix=0
New Line.m1069169_l2879064 Phases=1 bus1=m1069169.1 bus2=l2879064.1 Units=km Length=0.083904001 Rmatrix=1.67466 Xmatrix=0.93456 Cmatrix=0
New Line.l3010556_l2766718 Phases=3 bus1=l3010556.1.2.3 bus2=l2766718.1.2.3 Units=km Length=0.1061942 Rmatrix=[  1.6834           0.138324           0.142669| 0.138324            1.67686           0.139294| 0.142669           0.139294            1.68543|] Xmatrix=[  0.9273           0.432623           0.412253| 0.432623           0.932728           0.450469| 0.412253           0.450469           0.925637|] Cmatrix=[0                  0                  0| 0                  0                  0| 0                  0                  0|]
New Line.l2991933_l3122837 Phases=1 bus1=l2991933.3 bus2=l3122837.3 Units=km Length=0.083273252 Rmatrix=1.67466 Xmatrix=0.93456 Cmatrix=0
New Line.l3122837_l3048222 Phases=1 bus1=l3122837.3 bus2=l3048222.3 Units=km Length=0.15077835 Rmatrix=1.67466 Xmatrix=0.93456 Cmatrix=0
New Line.l2691936_m1026941 Phases=1 bus1=l2691936.1 bus2=m1026941.1 Units=km Length=0.073170138 Rmatrix=1.67466 Xmatrix=0.93456 Cmatrix=0
New Line.l2897772_l3101814 Phases=1 bus1=l2897772.1 bus2=l3101814.1 Units=km Length=0.056445275 Rmatrix=1.67466 Xmatrix=0.93456 Cmatrix=0
New Line.l2766732_m1026485 Phases=1 bus1=l2766732.2 bus2=m1026485.2 Units=km Length=0.013733074 Rmatrix=1.1223 Xmatrix=0.896365 Cmatrix=0
New Line.l2989564_l2897789 Phases=1 bus1=l2989564.2 bus2=l2897789.2 Units=km Length=0.10636114 Rmatrix=1.1223 Xmatrix=0.896365 Cmatrix=0
New Line.m1126016_l3120534 Phases=1 bus1=m1126016.1 bus2=l3120534.1 Units=km Length=0.035538915 Rmatrix=1.67466 Xmatrix=0.93456 Cmatrix=0
New Line.m1126016_l3195321 Phases=1 bus1=m1126016.1 bus2=l3195321.1 Units=km Length=0.066765978 Rmatrix=1.1223 Xmatrix=0.896365 Cmatrix=0
New Line.l3120534_m1126020 Phases=1 bus1=l3120534.1 bus2=m1126020.1 Units=km Length=0.10403976 Rmatrix=1.67466 Xmatrix=0.93456 Cmatrix=0
New Line.m1026330_l2766726 Phases=1 bus1=m1026330.2 bus2=l2766726.2 Units=km Length=0.030088055 Rmatrix=1.63382 Xmatrix=0.89683 Cmatrix=0
New Line.m1026330_m1026329 Phases=3 bus1=m1026330.1.2.3 bus2=m1026329.1.2.3 Units=km Length=0.036059111 Rmatrix=[  1.6834           0.138324           0.142669| 0.138324            1.67686           0.139294| 0.142669           0.139294            1.68543|] Xmatrix=[  0.9273           0.432623           0.412253| 0.432623     0.932728000001           0.450469| 0.412253           0.450469           0.925637|] Cmatrix=[0                  0                  0| 0                  0                  0| 0                  0                  0|]
[...]
New Load.Load_SX3139598B.1_model_1 Phases=1 bus1=SX3139598B.1 Kv=0.12 Kw=7.295 Model=1 Kvar=1.8283
New Load.Load_SX3139598B.2_model_1 Phases=1 bus1=SX3139598B.2 Kv=0.12 Kw=7.295 Model=1 Kvar=1.8283
New Load.Load_SX3214112B.1_model_1 Phases=1 bus1=SX3214112B.1 Kv=0.12 Kw=2.92 Model=1 Kvar=0.73182
New Load.Load_SX3214112B.2_model_1 Phases=1 bus1=SX3214112B.2 Kv=0.12 Kw=2.92 Model=1 Kvar=0.73182
New Load.Load_SX3251854A.1_model_1 Phases=1 bus1=SX3251854A.1 Kv=0.12 Kw=4.435 Model=1 Kvar=1.1115
New Load.Load_SX3251854A.2_model_1 Phases=1 bus1=SX3251854A.2 Kv=0.12 Kw=4.435 Model=1 Kvar=1.1115
New Load.Load_SX2763072B.1_model_1 Phases=1 bus1=SX2763072B.1 Kv=0.12 Kw=4.865 Model=1 Kvar=1.2193
New Load.Load_SX2763072B.2_model_1 Phases=1 bus1=SX2763072B.2 Kv=0.12 Kw=4.865 Model=1 Kvar=1.2193
New Load.Load_SX3172805A.1_model_1 Phases=1 bus1=SX3172805A.1 Kv=0.12 Kw=4.435 Model=1 Kvar=1.1115
New Load.Load_SX3172805A.2_model_1 Phases=1 bus1=SX3172805A.2 Kv=0.12 Kw=4.435 Model=1 Kvar=1.1115
New Load.Load_SX3226771A.1_model_1 Phases=1 bus1=SX3226771A.1 Kv=0.12 Kw=2.66 Model=1 Kvar=0.66666
New Load.Load_SX3226771A.2_model_1 Phases=1 bus1=SX3226771A.2 Kv=0.12 Kw=2.66 Model=1 Kvar=0.66666
New Load.Load_SX3189190A.1_model_1 Phases=1 bus1=SX3189190A.1 Kv=0.12 Kw=4.435 Model=1 Kvar=1.1115
New Load.Load_SX3189190A.2_model_1 Phases=1 bus1=SX3189190A.2 Kv=0.12 Kw=4.435 Model=1 Kvar=1.1115
New Load.Load_SX2896685A.1_model_1 Phases=1 bus1=SX2896685A.1 Kv=0.12 Kw=2.66 Model=1 Kvar=0.66666
New Load.Load_SX2896685A.2_model_1 Phases=1 bus1=SX2896685A.2 Kv=0.12 Kw=2.66 Model=1 Kvar=0.66666
New Load.Load_X2896685B.1_model_1 Phases=1 bus1=X2896685B.1 Kv=0.12 Kw=2.9299 Model=1 Kvar=0.73315
New Load.Load_X2896685B.2_model_1 Phases=1 bus1=X2896685B.2 Kv=0.12 Kw=2.9299 Model=1 Kvar=0.73315
New Load.Load_SX2896685C.1_model_1 Phases=1 bus1=SX2896685C.1 Kv=0.12 Kw=3.05 Model=1 Kvar=0.7644
New Load.Load_SX2896685C.2_model_1 Phases=1 bus1=SX2896685C.2 Kv=0.12 Kw=3.05 Model=1 Kvar=0.7644
New Load.Load_SX2937757C.1_model_1 Phases=1 bus1=SX2937757C.1 Kv=0.12 Kw=5.085 Model=1 Kvar=1.2744
New Load.Load_SX2937757C.2_model_1 Phases=1 bus1=SX2937757C.2 Kv=0.12 Kw=5.085 Model=1 Kvar=1.2744
New Load.Load_SX2806553C.1_model_1 Phases=1 bus1=SX2806553C.1 Kv=0.12 Kw=5.085 Model=1 Kvar=1.2744
New Load.Load_SX2806553C.2_model_1 Phases=1 bus1=SX2806553C.2 Kv=0.12 Kw=5.085 Model=1 Kvar=1.2744
New Load.Load_X2862616C.1_model_1 Phases=1 bus1=X2862616C.1 Kv=0.12 Kw=15.5371 Model=1 Kvar=3.8618
New Load.Load_X2862616C.2_model_1 Phases=1 bus1=X2862616C.2 Kv=0.12 Kw=15.5371 Model=1 Kvar=3.8618
New Load.Load_SX2746587C.1_model_1 Phases=1 bus1=SX2746587C.1 Kv=0.12 Kw=5.085 Model=1 Kvar=1.2744
New Load.Load_SX2746587C.2_model_1 Phases=1 bus1=SX2746587C.2 Kv=0.12 Kw=5.085 Model=1 Kvar=1.2744
New Load.Load_SX2727795C.1_model_1 Phases=1 bus1=SX2727795C.1 Kv=0.12 Kw=3.05 Model=1 Kvar=0.7644
New Load.Load_SX2727795C.2_model_1 Phases=1 bus1=SX2727795C.2 Kv=0.12 Kw=3.05 Model=1 Kvar=0.7644
New Load.Load_SX3177665A.1_model_1 Phases=1 bus1=SX3177665A.1 Kv=0.12 Kw=6.65 Model=1 Kvar=1.6666
New Load.Load_SX3177665A.2_model_1 Phases=1 bus1=SX3177665A.2 Kv=0.12 Kw=6.65 Model=1 Kvar=1.6666
New Load.Load_SX3046854B.1_model_1 Phases=1 bus1=SX3046854B.1 Kv=0.12 Kw=7.295 Model=1 Kvar=1.8283
New Load.Load_SX3046854B.2_model_1 Phases=1 bus1=SX3046854B.2 Kv=0.12 Kw=7.295 Model=1 Kvar=1.8283
New Load.Load_SX3102793B.1_model_1 Phases=1 bus1=SX3102793B.1 Kv=0.12 Kw=4.865 Model=1 Kvar=1.2193
New Load.Load_SX3102793B.2_model_1 Phases=1 bus1=SX3102793B.2 Kv=0.12 Kw=4.865 Model=1 Kvar=1.2193
New Load.Load_SX2803199A.1_model_1 Phases=1 bus1=SX2803199A.1 Kv=0.12 Kw=8.87 Model=1 Kvar=2.223
New Load.Load_SX2803199A.2_model_1 Phases=1 bus1=SX2803199A.2 Kv=0.12 Kw=8.87 Model=1 Kvar=2.223
New Load.Load_SX2803199B.1_model_1 Phases=1 bus1=SX2803199B.1 Kv=0.12 Kw=9.725 Model=1 Kvar=2.4373
New Load.Load_SX2803199B.2_model_1 Phases=1 bus1=SX2803199B.2 Kv=0.12 Kw=9.725 Model=1 Kvar=2.4373
New Load.Load_SX2803199C.1_model_1 Phases=1 bus1=SX2803199C.1 Kv=0.12 Kw=10.17 Model=1 Kvar=2.5488
New Load.Load_SX2803199C.2_model_1 Phases=1 bus1=SX2803199C.2 Kv=0.12 Kw=10.17 Model=1 Kvar=2.5488
New Load.Load_SX3215203A.1_model_1 Phases=1 bus1=SX3215203A.1 Kv=0.12 Kw=8.87 Model=1 Kvar=2.223
New Load.Load_SX3215203A.2_model_1 Phases=1 bus1=SX3215203A.2 Kv=0.12 Kw=8.87 Model=1 Kvar=2.223
New Load.Load_X3215203B.1_model_1 Phases=1 bus1=X3215203B.1 Kv=0.12 Kw=9.8365 Model=1 Kvar=2.4523
New Load.Load_X3215203B.2_model_1 Phases=1 bus1=X3215203B.2 Kv=0.12 Kw=9.8365 Model=1 Kvar=2.4523
New Load.Load_SX3215203C.1_model_1 Phases=1 bus1=SX3215203C.1 Kv=0.12 Kw=10.17 Model=1 Kvar=2.5488
New Load.Load_SX3215203C.2_model_1 Phases=1 bus1=SX3215203C.2 Kv=0.12 Kw=10.17 Model=1 Kvar=2.5488
New Load.Load_SX3065665A.1_model_1 Phases=1 bus1=SX3065665A.1 Kv=0.12 Kw=4.435 Model=1 Kvar=1.1115
New Load.Load_SX3065665A.2_model_1 Phases=1 bus1=SX3065665A.2 Kv=0.12 Kw=4.435 Model=1 Kvar=1.1115
New Load.Load_SX3177881C.1_model_1 Phases=1 bus1=SX3177881C.1 Kv=0.12 Kw=5.085 Model=1 Kvar=1.2744
New Load.Load_SX3177881C.2_model_1 Phases=1 bus1=SX3177881C.2 Kv=0.12 Kw=5.085 Model=1 Kvar=1.2744
New Load.Load_SX3047058A.1_model_1 Phases=1 bus1=SX3047058A.1 Kv=0.12 Kw=6.65 Model=1 Kvar=1.6666
New Load.Load_SX3047058A.2_model_1 Phases=1 bus1=SX3047058A.2 Kv=0.12 Kw=6.65 Model=1 Kvar=1.6666
New Load.Load_SX3177894A.1_model_1 Phases=1 bus1=SX3177894A.1 Kv=0.12 Kw=4.435 Model=1 Kvar=1.1115
New Load.Load_SX3177894A.2_model_1 Phases=1 bus1=SX3177894A.2 Kv=0.12 Kw=4.435 Model=1 Kvar=1.1115
New Load.Load_SX3140238A.1_model_1 Phases=1 bus1=SX3140238A.1 Kv=0.12 Kw=4.435 Model=1 Kvar=1.1115
New Load.Load_SX3140238A.2_model_1 Phases=1 bus1=SX3140238A.2 Kv=0.12 Kw=4.435 Model=1 Kvar=1.1115
New Load.Load_SX2821770A.1_model_1 Phases=1 bus1=SX2821770A.1 Kv=0.12 Kw=6.65 Model=1 Kvar=1.6666
New Load.Load_SX2821770A.2_model_1 Phases=1 bus1=SX2821770A.2 Kv=0.12 Kw=6.65 Model=1 Kvar=1.6666
New Load.Load_SX2915534A.1_model_1 Phases=1 bus1=SX2915534A.1 Kv=0.12 Kw=6.65 Model=1 Kvar=1.6666
New Load.Load_SX2915534A.2_model_1 Phases=1 bus1=SX2915534A.2 Kv=0.12 Kw=6.65 Model=1 Kvar=1.6666
New Load.Load_SX2690868C.1_model_1 Phases=1 bus1=SX2690868C.1 Kv=0.12 Kw=10.17 Model=1 Kvar=2.5488
New Load.Load_SX2690868C.2_model_1 Phases=1 bus1=SX2690868C.2 Kv=0.12 Kw=10.17 Model=1 Kvar=2.5488
New Load.Load_SX2803194C.1_model_1 Phases=1 bus1=SX2803194C.1 Kv=0.12 Kw=7.63 Model=1 Kvar=1.9123
New Load.Load_SX2803194C.2_model_1 Phases=1 bus1=SX2803194C.2 Kv=0.12 Kw=7.63 Model=1 Kvar=1.9123
New Load.Load_SX3047073C.1_model_1 Phases=1 bus1=SX3047073C.1 Kv=0.12 Kw=5.085 Model=1 Kvar=1.2744
New Load.Load_SX3047073C.2_model_1 Phases=1 bus1=SX3047073C.2 Kv=0.12 Kw=5.085 Model=1 Kvar=1.2744
New Load.Load_SX3065696A.1_model_1 Phases=1 bus1=SX3065696A.1 Kv=0.12 Kw=4.435 Model=1 Kvar=1.1115
New Load.Load_SX3065696A.2_model_1 Phases=1 bus1=SX3065696A.2 Kv=0.12 Kw=4.435 Model=1 Kvar=1.1115
New Load.Load_X2915542A.1_model_1 Phases=1 bus1=X2915542A.1 Kv=0.12 Kw=8.963 Model=1 Kvar=2.2355
New Load.Load_X2915542A.2_model_1 Phases=1 bus1=X2915542A.2 Kv=0.12 Kw=8.963 Model=1 Kvar=2.2355
New Load.Load_SX2915542B.1_model_1 Phases=1 bus1=SX2915542B.1 Kv=0.12 Kw=9.725 Model=1 Kvar=2.4373
New Load.Load_SX2915542B.2_model_1 Phases=1 bus1=SX2915542B.2 Kv=0.12 Kw=9.725 Model=1 Kvar=2.4373
New Load.Load_SX2915542C.1_model_1 Phases=1 bus1=SX2915542C.1 Kv=0.12 Kw=10.17 Model=1 Kvar=2.5488
New Load.Load_SX2915542C.2_model_1 Phases=1 bus1=SX2915542C.2 Kv=0.12 Kw=10.17 Model=1 Kvar=2.5488
New Load.Load_SX3234149A.1_model_1 Phases=1 bus1=SX3234149A.1 Kv=0.12 Kw=44.34 Model=1 Kvar=11.1127
New Load.Load_SX3234149A.2_model_1 Phases=1 bus1=SX3234149A.2 Kv=0.12 Kw=44.34 Model=1 Kvar=11.1127
New Load.Load_SX3234149B.1_model_1 Phases=1 bus1=SX3234149B.1 Kv=0.12 Kw=48.63 Model=1 Kvar=12.1878
New Load.Load_SX3234149B.2_model_1 Phases=1 bus1=SX3234149B.2 Kv=0.12 Kw=48.63 Model=1 Kvar=12.1878
New Load.Load_SX3234149C.1_model_1 Phases=1 bus1=SX3234149C.1 Kv=0.12 Kw=50.85 Model=1 Kvar=12.7442
New Load.Load_SX3234149C.2_model_1 Phases=1 bus1=SX3234149C.2 Kv=0.12 Kw=50.85 Model=1 Kvar=12.7442
New Load.Load_SX2859391B.1_model_1 Phases=1 bus1=SX2859391B.1 Kv=0.12 Kw=4.865 Model=1 Kvar=1.2193
New Load.Load_SX2859391B.2_model_1 Phases=1 bus1=SX2859391B.2 Kv=0.12 Kw=4.865 Model=1 Kvar=1.2193
New Load.Load_SX2859403A.1_model_1 Phases=1 bus1=SX2859403A.1 Kv=0.12 Kw=4.435 Model=1 Kvar=1.1115
New Load.Load_SX2859403A.2_model_1 Phases=1 bus1=SX2859403A.2 Kv=0.12 Kw=4.435 Model=1 Kvar=1.1115
New Load.Load_SX3215340A.1_model_1 Phases=1 bus1=SX3215340A.1 Kv=0.12 Kw=4.435 Model=1 Kvar=1.1115
New Load.Load_SX3215340A.2_model_1 Phases=1 bus1=SX3215340A.2 Kv=0.12 Kw=4.435 Model=1 Kvar=1.1115
New Load.Load_SX3047289A.1_model_1 Phases=1 bus1=SX3047289A.1 Kv=0.12 Kw=8.87 Model=1 Kvar=2.223
New Load.Load_SX3047289A.2_model_1 Phases=1 bus1=SX3047289A.2 Kv=0.12 Kw=8.87 Model=1 Kvar=2.223
New Load.Load_SX3047289B.1_model_1 Phases=1 bus1=SX3047289B.1 Kv=0.12 Kw=9.725 Model=1 Kvar=2.4373
New Load.Load_SX3047289B.2_model_1 Phases=1 bus1=SX3047289B.2 Kv=0.12 Kw=9.725 Model=1 Kvar=2.4373
New Load.Load_SX3047289C.1_model_1 Phases=1 bus1=SX3047289C.1 Kv=0.12 Kw=10.17 Model=1 Kvar=2.5488
New Load.Load_SX3047289C.2_model_1 Phases=1 bus1=SX3047289C.2 Kv=0.12 Kw=10.17 Model=1 Kvar=2.5488
New Load.Load_SX3215549B.1_model_1 Phases=1 bus1=SX3215549B.1 Kv=0.12 Kw=4.865 Model=1 Kvar=1.2193
New Load.Load_SX3215549B.2_model_1 Phases=1 bus1=SX3215549B.2 Kv=0.12 Kw=4.865 Model=1 Kvar=1.2193
New Load.Load_SX3253570C.1_model_1 Phases=1 bus1=SX3253570C.1 Kv=0.12 Kw=5.085 Model=1 Kvar=1.2744
New Load.Load_SX3253570C.2_model_1 Phases=1 bus1=SX3253570C.2 Kv=0.12 Kw=5.085 Model=1 Kvar=1.2744
New Load.Load_SX2972704C.1_model_1 Phases=1 bus1=SX2972704C.1 Kv=0.12 Kw=3.05 Model=1 Kvar=0.7644
New Load.Load_SX2972704C.2_model_1 Phases=1 bus1=SX2972704C.2 Kv=0.12 Kw=3.05 Model=1 Kvar=0.7644
New Load.Load_SX3159645A.1_model_1 Phases=1 bus1=SX3159645A.1 Kv=0.12 Kw=4.435 Model=1 Kvar=1.1115
New Load.Load_SX3159645A.2_model_1 Phases=1 bus1=SX3159645A.2 Kv=0.12 Kw=4.435 Model=1 Kvar=1.1115
New Load.Load_SX3091052A.1_model_1 Phases=1 bus1=SX3091052A.1 Kv=0.12 Kw=6.65 Model=1 Kvar=1.6666
New Load.Load_SX3091052A.2_model_1 Phases=1 bus1=SX3091052A.2 Kv=0.12 Kw=6.65 Model=1 Kvar=1.6666
New Load.Load_SX2916234A.1_model_1 Phases=1 bus1=SX2916234A.1 Kv=0.12 Kw=1.775 Model=1 Kvar=0.44486
New Load.Load_SX2916234A.2_model_1 Phases=1 bus1=SX2916234A.2 Kv=0.12 Kw=1.775 Model=1 Kvar=0.44486
New Load.Load_SX3029183B.1_model_1 Phases=1 bus1=SX3029183B.1 Kv=0.12 Kw=2.92 Model=1 Kvar=0.73182
New Load.Load_SX3029183B.2_model_1 Phases=1 bus1=SX3029183B.2 Kv=0.12 Kw=2.92 Model=1 Kvar=0.73182
New Load.Load_SX3108449A.1_model_1 Phases=1 bus1=SX3108449A.1 Kv=0.12 Kw=2.66 Model=1 Kvar=0.66666
New Load.Load_SX3108449A.2_model_1 Phases=1 bus1=SX3108449A.2 Kv=0.12 Kw=2.66 Model=1 Kvar=0.66666
New Load.Load_SX3103822C.1_model_1 Phases=1 bus1=SX3103822C.1 Kv=0.12 Kw=7.63 Model=1 Kvar=1.9123
New Load.Load_SX3103822C.2_model_1 Phases=1 bus1=SX3103822C.2 Kv=0.12 Kw=7.63 Model=1 Kvar=1.9123
New Load.Load_SX2991640C.1_model_1 Phases=1 bus1=SX2991640C.1 Kv=0.12 Kw=2.035 Model=1 Kvar=0.51002
New Load.Load_SX2991640C.2_model_1 Phases=1 bus1=SX2991640C.2 Kv=0.12 Kw=2.035 Model=1 Kvar=0.51002
New Load.Load_SX2729206C.1_model_1 Phases=1 bus1=SX2729206C.1 Kv=0.12 Kw=7.63 Model=1 Kvar=1.9123
New Load.Load_SX2729206C.2_model_1 Phases=1 bus1=SX2729206C.2 Kv=0.12 Kw=7.63 Model=1 Kvar=1.9123
New Load.Load_SX2897554C.1_model_1 Phases=1 bus1=SX2897554C.1 Kv=0.12 Kw=10.17 Model=1 Kvar=2.5488
New Load.Load_SX2897554C.2_model_1 Phases=1 bus1=SX2897554C.2 Kv=0.12 Kw=10.17 Model=1 Kvar=2.5488
New Load.Load_SX2729207C.1_model_1 Phases=1 bus1=SX2729207C.1 Kv=0.12 Kw=10.17 Model=1 Kvar=2.5488
New Load.Load_SX2729207C.2_model_1 Phases=1 bus1=SX2729207C.2 Kv=0.12 Kw=10.17 Model=1 Kvar=2.5488
New Load.Load_SX2766499C.1_model_1 Phases=1 bus1=SX2766499C.1 Kv=0.12 Kw=10.17 Model=1 Kvar=2.5488
New Load.Load_SX2766499C.2_model_1 Phases=1 bus1=SX2766499C.2 Kv=0.12 Kw=10.17 Model=1 Kvar=2.5488
New Load.Load_SX2878848C.1_model_1 Phases=1 bus1=SX2878848C.1 Kv=0.12 Kw=7.63 Model=1 Kvar=1.9123
New Load.Load_SX2878848C.2_model_1 Phases=1 bus1=SX2878848C.2 Kv=0.12 Kw=7.63 Model=1 Kvar=1.9123
New Load.Load_SX3263051C.1_model_1 Phases=1 bus1=SX3263051C.1 Kv=0.12 Kw=5.085 Model=1 Kvar=1.2744
New Load.Load_SX3263051C.2_model_1 Phases=1 bus1=SX3263051C.2 Kv=0.12 Kw=5.085 Model=1 Kvar=1.2744
New Load.Load_SX3312692A.1_model_1 Phases=1 bus1=SX3312692A.1 Kv=0.12 Kw=4.435 Model=1 Kvar=1.1115
New Load.Load_SX3312692A.2_model_1 Phases=1 bus1=SX3312692A.2 Kv=0.12 Kw=4.435 Model=1 Kvar=1.1115
New Load.Load_SX3315860B.1_model_1 Phases=1 bus1=SX3315860B.1 Kv=0.12 Kw=2.92 Model=1 Kvar=0.73182
New Load.Load_SX3315860B.2_model_1 Phases=1 bus1=SX3315860B.2 Kv=0.12 Kw=2.92 Model=1 Kvar=0.73182
New Load.Load_SX3342743C.1_model_1 Phases=1 bus1=SX3342743C.1 Kv=0.12 Kw=2.035 Model=1 Kvar=0.51002
New Load.Load_SX3342743C.2_model_1 Phases=1 bus1=SX3342743C.2 Kv=0.12 Kw=2.035 Model=1 Kvar=0.51002
New Load.Load_SX3448661B.1_model_1 Phases=1 bus1=SX3448661B.1 Kv=0.12 Kw=2.92 Model=1 Kvar=0.73182
New Load.Load_SX3448661B.2_model_1 Phases=1 bus1=SX3448661B.2 Kv=0.12 Kw=2.92 Model=1 Kvar=0.73182
New Load.Load_SX3552667C.1_model_1 Phases=1 bus1=SX3552667C.1 Kv=0.12 Kw=5.085 Model=1 Kvar=1.2744
New Load.Load_SX3552667C.2_model_1 Phases=1 bus1=SX3552667C.2 Kv=0.12 Kw=5.085 Model=1 Kvar=1.2744
New Load.Load_SX3626914C.1_model_1 Phases=1 bus1=SX3626914C.1 Kv=0.12 Kw=3.05 Model=1 Kvar=0.7644
New Load.Load_SX3626914C.2_model_1 Phases=1 bus1=SX3626914C.2 Kv=0.12 Kw=3.05 Model=1 Kvar=0.7644
New Load.Load_SX3632979A.1_model_1 Phases=1 bus1=SX3632979A.1 Kv=0.12 Kw=2.66 Model=1 Kvar=0.66666
New Load.Load_SX3632979A.2_model_1 Phases=1 bus1=SX3632979A.2 Kv=0.12 Kw=2.66 Model=1 Kvar=0.66666
New Load.Load_SX3645809C.1_model_1 Phases=1 bus1=SX3645809C.1 Kv=0.12 Kw=10.17 Model=1 Kvar=2.5488
New Load.Load_SX3645809C.2_model_1 Phases=1 bus1=SX3645809C.2 Kv=0.12 Kw=10.17 Model=1 Kvar=2.5488
New Load.Load_SX3645810C.1_model_1 Phases=1 bus1=SX3645810C.1 Kv=0.12 Kw=15.26 Model=1 Kvar=3.8245
New Load.Load_SX3645810C.2_model_1 Phases=1 bus1=SX3645810C.2 Kv=0.12 Kw=15.26 Model=1 Kvar=3.8245
New Load.Load_SX3645811C.1_model_1 Phases=1 bus1=SX3645811C.1 Kv=0.12 Kw=15.26 Model=1 Kvar=3.8245
New Load.Load_SX3645811C.2_model_1 Phases=1 bus1=SX3645811C.2 Kv=0.12 Kw=15.26 Model=1 Kvar=3.8245
New Load.Load_SX3645812C.1_model_1 Phases=1 bus1=SX3645812C.1 Kv=0.12 Kw=7.63 Model=1 Kvar=1.9123
New Load.Load_SX3645812C.2_model_1 Phases=1 bus1=SX3645812C.2 Kv=0.12 Kw=7.63 Model=1 Kvar=1.9123
New Load.Load_SX3649297A.1_model_1 Phases=1 bus1=SX3649297A.1 Kv=0.12 Kw=6.65 Model=1 Kvar=1.6666
New Load.Load_SX3649297A.2_model_1 Phases=1 bus1=SX3649297A.2 Kv=0.12 Kw=6.65 Model=1 Kvar=1.6666
New Load.Load_SX3649298A.1_model_1 Phases=1 bus1=SX3649298A.1 Kv=0.12 Kw=6.65 Model=1 Kvar=1.6666
New Load.Load_SX3649298A.2_model_1 Phases=1 bus1=SX3649298A.2 Kv=0.12 Kw=6.65 Model=1 Kvar=1.6666
New Load.Load_SX3649299A.1_model_1 Phases=1 bus1=SX3649299A.1 Kv=0.12 Kw=4.435 Model=1 Kvar=1.1115
New Load.Load_SX3649299A.2_model_1 Phases=1 bus1=SX3649299A.2 Kv=0.12 Kw=4.435 Model=1 Kvar=1.1115
New Load.Load_SX3649300A.1_model_1 Phases=1 bus1=SX3649300A.1 Kv=0.12 Kw=6.65 Model=1 Kvar=1.6666
New Load.Load_SX3649300A.2_model_1 Phases=1 bus1=SX3649300A.2 Kv=0.12 Kw=6.65 Model=1 Kvar=1.6666
New Load.Load_SX3649301A.1_model_1 Phases=1 bus1=SX3649301A.1 Kv=0.12 Kw=6.65 Model=1 Kvar=1.6666
New Load.Load_SX3649301A.2_model_1 Phases=1 bus1=SX3649301A.2 Kv=0.12 Kw=6.65 Model=1 Kvar=1.6666
New Load.Load_SX3649302A.1_model_1 Phases=1 bus1=SX3649302A.1 Kv=0.12 Kw=6.65 Model=1 Kvar=1.6666
New Load.Load_SX3649302A.2_model_1 Phases=1 bus1=SX3649302A.2 Kv=0.12 Kw=6.65 Model=1 Kvar=1.6666
New Load.Load_SX3649304A.1_model_1 Phases=1 bus1=SX3649304A.1 Kv=0.12 Kw=6.65 Model=1 Kvar=1.6666
New Load.Load_SX3649304A.2_model_1 Phases=1 bus1=SX3649304A.2 Kv=0.12 Kw=6.65 Model=1 Kvar=1.6666
New Load.Load_SX3649305A.1_model_1 Phases=1 bus1=SX3649305A.1 Kv=0.12 Kw=2.66 Model=1 Kvar=0.66666
New Load.Load_SX3649305A.2_model_1 Phases=1 bus1=SX3649305A.2 Kv=0.12 Kw=2.66 Model=1 Kvar=0.66666
New Load.Load_SX3649306A.1_model_1 Phases=1 bus1=SX3649306A.1 Kv=0.12 Kw=6.65 Model=1 Kvar=1.6666
New Load.Load_SX3649306A.2_model_1 Phases=1 bus1=SX3649306A.2 Kv=0.12 Kw=6.65 Model=1 Kvar=1.6666
New Load.Load_SX3729297A.1_model_1 Phases=1 bus1=SX3729297A.1 Kv=0.12 Kw=4.435 Model=1 Kvar=1.1115
New Load.Load_SX3729297A.2_model_1 Phases=1 bus1=SX3729297A.2 Kv=0.12 Kw=4.435 Model=1 Kvar=1.1115
New Load.Load_SX3729298A.1_model_1 Phases=1 bus1=SX3729298A.1 Kv=0.12 Kw=6.65 Model=1 Kvar=1.6666
New Load.Load_SX3729298A.2_model_1 Phases=1 bus1=SX3729298A.2 Kv=0.12 Kw=6.65 Model=1 Kvar=1.6666
New Load.Load_SX3727707A.1_model_1 Phases=1 bus1=SX3727707A.1 Kv=0.12 Kw=4.435 Model=1 Kvar=1.1115
New Load.Load_SX3727707A.2_model_1 Phases=1 bus1=SX3727707A.2 Kv=0.12 Kw=4.435 Model=1 Kvar=1.1115
New Load.Load_SX3727708A.1_model_1 Phases=1 bus1=SX3727708A.1 Kv=0.12 Kw=2.66 Model=1 Kvar=0.66666
New Load.Load_SX3727708A.2_model_1 Phases=1 bus1=SX3727708A.2 Kv=0.12 Kw=2.66 Model=1 Kvar=0.66666
New Load.Load_SX3727709A.1_model_1 Phases=1 bus1=SX3727709A.1 Kv=0.12 Kw=6.65 Model=1 Kvar=1.6666
New Load.Load_SX3727709A.2_model_1 Phases=1 bus1=SX3727709A.2 Kv=0.12 Kw=6.65 Model=1 Kvar=1.6666
New Load.Load_SX3727710A.1_model_1 Phases=1 bus1=SX3727710A.1 Kv=0.12 Kw=6.65 Model=1 Kvar=1.6666
New Load.Load_SX3727710A.2_model_1 Phases=1 bus1=SX3727710A.2 Kv=0.12 Kw=6.65 Model=1 Kvar=1.6666
New Load.Load_SX3727711A.1_model_1 Phases=1 bus1=SX3727711A.1 Kv=0.12 Kw=2.66 Model=1 Kvar=0.66666
New Load.Load_SX3727711A.2_model_1 Phases=1 bus1=SX3727711A.2 Kv=0.12 Kw=2.66 Model=1 Kvar=0.66666
New Load.Load_SX3727712A.1_model_1 Phases=1 bus1=SX3727712A.1 Kv=0.12 Kw=4.435 Model=1 Kvar=1.1115
New Load.Load_SX3727712A.2_model_1 Phases=1 bus1=SX3727712A.2 Kv=0.12 Kw=4.435 Model=1 Kvar=1.1115
New Load.Load_SX3728037A.1_model_1 Phases=1 bus1=SX3728037A.1 Kv=0.12 Kw=4.435 Model=1 Kvar=1.1115
New Load.Load_SX3728037A.2_model_1 Phases=1 bus1=SX3728037A.2 Kv=0.12 Kw=4.435 Model=1 Kvar=1.1115
New Load.Load_SX3728038A.1_model_1 Phases=1 bus1=SX3728038A.1 Kv=0.12 Kw=4.435 Model=1 Kvar=1.1115
New Load.Load_SX3728038A.2_model_1 Phases=1 bus1=SX3728038A.2 Kv=0.12 Kw=4.435 Model=1 Kvar=1.1115
New Load.Load_SX3728039A.1_model_1 Phases=1 bus1=SX3728039A.1 Kv=0.12 Kw=6.65 Model=1 Kvar=1.6666
New Load.Load_SX3728039A.2_model_1 Phases=1 bus1=SX3728039A.2 Kv=0.12 Kw=6.65 Model=1 Kvar=1.6666
New Load.Load_SX3728040A.1_model_1 Phases=1 bus1=SX3728040A.1 Kv=0.12 Kw=6.65 Model=1 Kvar=1.6666
New Load.Load_SX3728040A.2_model_1 Phases=1 bus1=SX3728040A.2 Kv=0.12 Kw=6.65 Model=1 Kvar=1.6666
New Load.Load_SX3728041A.1_model_1 Phases=1 bus1=SX3728041A.1 Kv=0.12 Kw=4.435 Model=1 Kvar=1.1115
New Load.Load_SX3728041A.2_model_1 Phases=1 bus1=SX3728041A.2 Kv=0.12 Kw=4.435 Model=1 Kvar=1.1115
New Load.Load_SX3728042A.1_model_1 Phases=1 bus1=SX3728042A.1 Kv=0.12 Kw=6.65 Model=1 Kvar=1.6666
New Load.Load_SX3728042A.2_model_1 Phases=1 bus1=SX3728042A.2 Kv=0.12 Kw=6.65 Model=1 Kvar=1.6666
New Load.Load_SX3728043A.1_model_1 Phases=1 bus1=SX3728043A.1 Kv=0.12 Kw=6.65 Model=1 Kvar=1.6666
New Load.Load_SX3728043A.2_model_1 Phases=1 bus1=SX3728043A.2 Kv=0.12 Kw=6.65 Model=1 Kvar=1.6666
New Load.Load_SX3778577C.1_model_1 Phases=1 bus1=SX3778577C.1 Kv=0.12 Kw=5.085 Model=1 Kvar=1.2744
New Load.Load_SX3778577C.2_model_1 Phases=1 bus1=SX3778577C.2 Kv=0.12 Kw=5.085 Model=1 Kvar=1.2744
New Load.Load_SX3784018A.1_model_1 Phases=1 bus1=SX3784018A.1 Kv=0.12 Kw=1.775 Model=1 Kvar=0.44486
New Load.Load_SX3784018A.2_model_1 Phases=1 bus1=SX3784018A.2 Kv=0.12 Kw=1.775 Model=1 Kvar=0.44486


! Let DSS estimate the voltage bases
Set voltagebases=[115 12.47 0.48 0.208]
Calcvoltagebases     ! This also establishes the bus list

Buscoords OutputDSS_buscoords.csv


set maxiterations=1000
