Clear

New Circuit.EPRIK1_Reduced bus1=Trans_equiv basekv=69 pu=1 R1=0.80626 X1=7.8138 R0=0.91631 X0=14.5568
New Line.k_lsb_k21 Phases=3 bus1=k_lsb.1.2.3 bus2=k21.1.2.3 Units=km Length=0.001 Rmatrix=[1                  0                  0| 0                  1                  0| 0                  0                  1|] Xmatrix=[1                  0                  0| 0     0.999999999999                  0| 0                  0                  1|] Cmatrix=[0                  0                  0| 0                  0                  0| 0                  0                  0|]
New Line.k_lsb_k22 Phases=3 bus1=k_lsb.1.2.3 bus2=k22.1.2.3 Units=km Length=0.001 Rmatrix=[1                  0                  0| 0                  1                  0| 0                  0                  1|] Xmatrix=[1                  0                  0| 0     0.999999999998                  0| 0                  0                  1|] Cmatrix=[0                  0                  0| 0                  0                  0| 0                  0                  0|]
New Line.k21_10580818 Phases=3 bus1=k21.1.2.3 bus2=10580818.1.2.3 Units=km Length=0.061431206 Rmatrix=[ 0.149604666667    0.0762826666666    0.0762826666666| 0.0762826666666     0.149604666667    0.0762826666667| 0.0762826666666    0.0762826666667     0.149604666667|] Xmatrix=[0.649266666666     0.278616666667     0.278616666667| 0.278616666667     0.649266666667     0.278616666667| 0.278616666667     0.278616666667     0.649266666667|] Cmatrix=[0                  0                  0| 0                  0                  0| 0                  0                  0|]
New Line.34097296_10559391 Phases=1 bus1=34097296.1 bus2=10559391.1 Units=km Length=0.11794314 Rmatrix=0.53562 Xmatrix=0.54302 Cmatrix=0
New Line.10558484_10558483 Phases=1 bus1=10558484.2 bus2=10558483.2 Units=km Length=0.1396244 Rmatrix=0.53561999 Xmatrix=0.54301999 Cmatrix=0
New Line.10548932_10549227 Phases=3 bus1=10548932.1.2.3 bus2=10549227.1.2.3 Units=km Length=0.033488829 Rmatrix=[ 0.149604666667    0.0762826666668    0.0762826666668| 0.0762826666668     0.149604666667    0.0762826666669| 0.0762826666668    0.0762826666669     0.149604666667|] Xmatrix=[0.649266666666     0.278616666667     0.278616666667| 0.278616666667     0.649266666666     0.278616666666| 0.278616666667     0.278616666666     0.649266666667|] Cmatrix=[0                  0                  0| 0                  0                  0| 0                  0                  0|]
New Line.10549227_10549228 Phases=3 bus1=10549227.1.2.3 bus2=10549228.1.2.3 Units=km Length=0.12636524 Rmatrix=[ 0.149604665483    0.0762826660626    0.0762826660629| 0.0762826660626     0.149604665482    0.0762826660626| 0.0762826660629    0.0762826660626     0.149604665483|] Xmatrix=[0.649266661529     0.278616664462     0.278616664462| 0.278616664462      0.64926666153     0.278616664462| 0.278616664462     0.278616664462     0.649266661529|] Cmatrix=[0                  0                  0| 0                  0                  0| 0                  0                  0|]
New Line.10549227_10549240 Phases=1 bus1=10549227.2 bus2=10549240.2 Units=km Length=0.006749536 Rmatrix=0.53562 Xmatrix=0.54302 Cmatrix=0
New Line.10548918_10548919 Phases=3 bus1=10548918.1.2.3 bus2=10548919.1.2.3 Units=km Length=0.087900111 Rmatrix=[ 0.220443333333    0.0762833333334    0.0762833333335| 0.0762833333334     0.220443333334    0.0762833333335| 0.0762833333335    0.0762833333335     0.220443333334|] Xmatrix=[0.675746666667     0.278626666667     0.278626666667| 0.278626666667     0.675746666667     0.278626666666| 0.278626666667     0.278626666666     0.675746666667|] Cmatrix=[0                  0                  0| 0                  0                  0| 0                  0                  0|]
New Line.10548918_10548942 Phases=1 bus1=10548918.3 bus2=10548942.3 Units=km Length=0.008685967 Rmatrix=0.53562 Xmatrix=0.54302 Cmatrix=0
New Line.10548919_34085402 Phases=3 bus1=10548919.1.2.3 bus2=34085402.1.2.3 Units=km Length=0.22322534 Rmatrix=[ 0.220443329383    0.0762833319664    0.0762833319664| 0.0762833319664     0.220443329383    0.0762833319664| 0.0762833319664    0.0762833319664     0.220443329383|] Xmatrix=[0.675746654558     0.278626661674     0.278626661674| 0.278626661674     0.675746654558     0.278626661674| 0.278626661674     0.278626661674     0.675746654558|] Cmatrix=[0                  0                  0| 0                  0                  0| 0                  0                  0|]
New Line.10548919_10548946 Phases=2 bus1=10548919.2.3 bus2=10548946.2.3 Units=km Length=0.007654034 Rmatrix=[0.63995            0.10433| 0.10433            0.63995|] Xmatrix=[0.841313333333     0.283693333333| 0.283693333333     0.841313333333|] Cmatrix=[0                  0| 0                  0|]
New Line.34092234_34092313 Phases=1 bus1=34092234.3 bus2=34092313.3 Units=km Length=0.067548075 Rmatrix=1.3515 Xmatrix=0.54581 Cmatrix=0
New Line.34092313_34086805 Phases=1 bus1=34092313.3 bus2=34086805.3 Units=km Length=0.12010679 Rmatrix=1.3515001 Xmatrix=0.54581002 Cmatrix=0
New Line.34095660_34085491 Phases=3 bus1=34095660.1.2.3 bus2=34085491.1.2.3 Units=km Length=0.076128402 Rmatrix=[ 0.149604666667    0.0762826666667    0.0762826666667| 0.0762826666667     0.149604666667    0.0762826666666| 0.0762826666667    0.0762826666666     0.149604666666|] Xmatrix=[0.649266666668     0.278616666666     0.278616666667| 0.278616666666     0.649266666667     0.278616666667| 0.278616666667     0.278616666667     0.649266666666|] Cmatrix=[0                  0                  0| 0                  0                  0| 0                  0                  0|]
New Line.34085491_10549217 Phases=3 bus1=34085491.1.2.3 bus2=10549217.1.2.3 Units=km Length=0.097797292 Rmatrix=[ 0.149604666667    0.0762826666666    0.0762826666667| 0.0762826666666     0.149604666667    0.0762826666666| 0.0762826666667    0.0762826666666     0.149604666667|] Xmatrix=[0.649266666667     0.278616666667     0.278616666667| 0.278616666667     0.649266666667     0.278616666667| 0.278616666667     0.278616666667     0.649266666667|] Cmatrix=[0                  0                  0| 0                  0                  0| 0                  0                  0|]
New Line.34057797_34054972 Phases=1 bus1=34057797.3 bus2=34054972.3 Units=km Length=0.084069266 Rmatrix=0.55774 Xmatrix=0.098425 Cmatrix=0
New Line.34054972_34054971 Phases=1 bus1=34054972.3 bus2=34054971.3 Units=km Length=0.083588793 Rmatrix=0.55774 Xmatrix=0.098425 Cmatrix=0
New Line.10548007_10579832 Phases=1 bus1=10548007.3 bus2=10579832.3 Units=km Length=0.007700547 Rmatrix=0.53562 Xmatrix=0.54302 Cmatrix=0
New Line.10548007_10549292 Phases=3 bus1=10548007.1.2.3 bus2=10549292.1.2.3 Units=km Length=0.038659065 Rmatrix=[ 0.346583333333    0.0762833333333    0.0762833333333| 0.0762833333333     0.346583333333    0.0762833333332| 0.0762833333333    0.0762833333332     0.346583333333|] Xmatrix=[0.70388            0.27861            0.27861| 0.27861            0.70388            0.27861| 0.27861            0.27861            0.70388|] Cmatrix=[0                  0                  0| 0                  0                  0| 0                  0                  0|]
New Line.10579832_10579843 Phases=1 bus1=10579832.3 bus2=10579843.3 Units=km Length=0.077882625 Rmatrix=0.53562 Xmatrix=0.54302 Cmatrix=0
New Line.34086311_10559275 Phases=1 bus1=34086311.1 bus2=10559275.1 Units=km Length=0.098723357 Rmatrix=0.53562 Xmatrix=0.54302 Cmatrix=0
New Line.10559275_34086798 Phases=1 bus1=10559275.1 bus2=34086798.1 Units=km Length=0.070898345 Rmatrix=0.53562 Xmatrix=0.54302 Cmatrix=0
New Line.10558476_10558475 Phases=3 bus1=10558476.1.2.3 bus2=10558475.1.2.3 Units=km Length=0.008193699 Rmatrix=[0.640633333333     0.105013333333     0.105013333333| 0.105013333333     0.640633333333     0.105013333333| 0.105013333333     0.105013333333     0.640633333333|] Xmatrix=[0.839726666667     0.319636666667     0.319636666667| 0.319636666667     0.839726666667     0.319636666667| 0.319636666667     0.319636666667     0.839726666667|] Cmatrix=[0                  0                  0| 0                  0                  0| 0                  0                  0|]
New Line.10558475_10558494 Phases=3 bus1=10558475.1.2.3 bus2=10558494.1.2.3 Units=km Length=0.012200447 Rmatrix=[0.754593333334     0.196853333333     0.196853333333| 0.196853333333     0.754593333333     0.196853333333| 0.196853333333     0.196853333333     0.754593333334|] Xmatrix=[  0.142168333333   -0.0218716666668   -0.0218716666666| -0.0218716666668     0.142168333333   -0.0218716666667| -0.0218716666666   -0.0218716666667     0.142168333333|] Cmatrix=[0                  0                  0| 0                  0                  0| 0                  0                  0|]
New Line.10549222_10549221 Phases=3 bus1=10549222.1.2.3 bus2=10549221.1.2.3 Units=km Length=0.062979628 Rmatrix=[ 0.149604666667    0.0762826666668    0.0762826666669| 0.0762826666668     0.149604666667    0.0762826666671| 0.0762826666669    0.0762826666671     0.149604666667|] Xmatrix=[0.649266666667     0.278616666667     0.278616666667| 0.278616666667     0.649266666667     0.278616666667| 0.278616666667     0.278616666667     0.649266666667|] Cmatrix=[0                  0                  0| 0                  0                  0| 0                  0                  0|]
New Line.10549222_10549260 Phases=1 bus1=10549222.3 bus2=10549260.3 Units=km Length=0.007417994 Rmatrix=0.53562 Xmatrix=0.54302 Cmatrix=0
New Line.10549221_34085490 Phases=3 bus1=10549221.1.2.3 bus2=34085490.1.2.3 Units=km Length=0.13126739 Rmatrix=[0.149604668946     0.076282667829     0.076282667829| 0.076282667829     0.149604668946    0.0762826678289| 0.076282667829    0.0762826678289     0.149604668946|] Xmatrix=[0.649266676559     0.278616670911     0.278616670912| 0.278616670911     0.649266676559     0.278616670912| 0.278616670912     0.278616670912     0.649266676559|] Cmatrix=[0                  0                  0| 0                  0                  0| 0                  0                  0|]
New Line.10549221_10549264 Phases=1 bus1=10549221.2 bus2=10549264.2 Units=km Length=0.007340895 Rmatrix=0.53562 Xmatrix=0.54302 Cmatrix=0
New Line.10548912_10548913 Phases=3 bus1=10548912.1.2.3 bus2=10548913.1.2.3 Units=km Length=0.12723937 Rmatrix=[ 0.220443328132    0.0762833315336    0.0762833315349| 0.0762833315336     0.220443328135    0.0762833315345| 0.0762833315349    0.0762833315345     0.220443328136|] Xmatrix=[0.675746650746     0.278626660101     0.278626660099| 0.278626660101     0.675746650734     0.278626660097| 0.278626660099     0.278626660097     0.675746650737|] Cmatrix=[0                  0                  0| 0                  0                  0| 0                  0                  0|]
New Line.10548912_10548980 Phases=2 bus1=10548912.1.3 bus2=10548980.1.3 Units=km Length=0.007587056 Rmatrix=[0.63995            0.10433| 0.10433            0.63995|] Xmatrix=[0.841313333333     0.283693333333| 0.283693333333     0.841313333333|] Cmatrix=[0                  0| 0                  0|]
New Line.10548913_34090004 Phases=3 bus1=10548913.1.2.3 bus2=34090004.1.2.3 Units=km Length=0.004210908 Rmatrix=[ 0.220443333333    0.0762833333333    0.0762833333333| 0.0762833333333     0.220443333333    0.0762833333333| 0.0762833333333    0.0762833333333     0.220443333333|] Xmatrix=[0.675746666667     0.278626666667     0.278626666667| 0.278626666667     0.675746666667     0.278626666667| 0.278626666667     0.278626666667     0.675746666667|] Cmatrix=[0                  0                  0| 0                  0                  0| 0                  0                  0|]
New Line.10548913_10548963 Phases=1 bus1=10548913.2 bus2=10548963.2 Units=km Length=0.013573783 Rmatrix=0.53562 Xmatrix=0.54302 Cmatrix=0
New Line.10559587_34091314 Phases=1 bus1=10559587.3 bus2=34091314.3 Units=km Length=0.003799378 Rmatrix=0.53562 Xmatrix=0.54302 Cmatrix=0
New Line.34091314_10559588 Phases=1 bus1=34091314.3 bus2=10559588.3 Units=km Length=0.097413818 Rmatrix=0.53562 Xmatrix=0.54302 Cmatrix=0
New Line.34091314_10559589 Phases=1 bus1=34091314.3 bus2=10559589.3 Units=km Length=0.11794176 Rmatrix=0.53562002 Xmatrix=0.54302002 Cmatrix=0
New Line.34085954_34085468 Phases=1 bus1=34085954.3 bus2=34085468.3 Units=km Length=0.59794372 Rmatrix=1.3515 Xmatrix=0.54581 Cmatrix=0
New Line.34085954_10584630 Phases=1 bus1=34085954.3 bus2=10584630.3 Units=km Length=0.014133402 Rmatrix=0.53562 Xmatrix=0.54302 Cmatrix=0
New Line.34085468_34086806 Phases=1 bus1=34085468.3 bus2=34086806.3 Units=km Length=0.19739501 Rmatrix=1.3515 Xmatrix=0.54581001 Cmatrix=0
New Line.20344367_34054966 Phases=1 bus1=20344367.2 bus2=34054966.2 Units=km Length=0.008414458 Rmatrix=0.55774 Xmatrix=0.098425 Cmatrix=0
New Line.10558517_10558958 Phases=1 bus1=10558517.1 bus2=10558958.1 Units=km Length=0.007269772 Rmatrix=1.3546 Xmatrix=0.5314 Cmatrix=0
New Line.10558517_34086403 Phases=3 bus1=10558517.1.2.3 bus2=34086403.1.2.3 Units=km Length=0.057405913 Rmatrix=[ 0.149604666667    0.0762826666666    0.0762826666666| 0.0762826666666     0.149604666667    0.0762826666667| 0.0762826666666    0.0762826666667     0.149604666667|] Xmatrix=[0.649266666667     0.278616666667     0.278616666667| 0.278616666667     0.649266666667     0.278616666667| 0.278616666667     0.278616666667     0.649266666667|] Cmatrix=[0                  0                  0| 0                  0                  0| 0                  0                  0|]
New Line.10558958_10559040 Phases=1 bus1=10558958.1 bus2=10559040.1 Units=km Length=0.072571201 Rmatrix=1.3546 Xmatrix=0.5314 Cmatrix=0
New Line.10557802_10557182 Phases=3 bus1=10557802.1.2.3 bus2=10557182.1.2.3 Units=km Length=0.047292251 Rmatrix=[ 0.149604666667    0.0762826666666    0.0762826666667| 0.0762826666666     0.149604666667    0.0762826666667| 0.0762826666667    0.0762826666667     0.149604666667|] Xmatrix=[0.649266666666     0.278616666667     0.278616666667| 0.278616666667     0.649266666666     0.278616666666| 0.278616666667     0.278616666666     0.649266666667|] Cmatrix=[0                  0                  0| 0                  0                  0| 0                  0                  0|]
New Line.10557802_10548905 Phases=3 bus1=10557802.1.2.3 bus2=10548905.1.2.3 Units=km Length=0.057202832 Rmatrix=[0.660123333333     0.112013333333     0.112013333333| 0.112013333333     0.660123333333     0.112013333333| 0.112013333333     0.112013333333     0.660123333333|] Xmatrix=[0.785106666667     0.315846666667     0.315846666667| 0.315846666667     0.785106666667     0.315846666667| 0.315846666667     0.315846666667     0.785106666667|] Cmatrix=[0                  0                  0| 0                  0                  0| 0                  0                  0|]
New Line.10557182_10548903 Phases=3 bus1=10557182.1.2.3 bus2=10548903.1.2.3 Units=km Length=0.014021824 Rmatrix=[0.640633333333     0.105013333333     0.105013333333| 0.105013333333     0.640633333334     0.105013333333| 0.105013333333     0.105013333333     0.640633333333|] Xmatrix=[0.839726666666     0.319636666667     0.319636666667| 0.319636666667     0.839726666667     0.319636666667| 0.319636666667     0.319636666667     0.839726666667|] Cmatrix=[0                  0                  0| 0                  0                  0| 0                  0                  0|]
New Line.10557182_10548911 Phases=3 bus1=10557182.1.2.3 bus2=10548911.1.2.3 Units=km Length=0.00408656 Rmatrix=[ 0.220443333333    0.0762833333333    0.0762833333333| 0.0762833333333     0.220443333333    0.0762833333333| 0.0762833333333    0.0762833333333     0.220443333333|] Xmatrix=[0.675746666666     0.278626666667     0.278626666667| 0.278626666667     0.675746666666     0.278626666666| 0.278626666667     0.278626666666     0.675746666667|] Cmatrix=[0                  0                  0| 0                  0                  0| 0                  0                  0|]
New Line.20079696_10549020 Phases=1 bus1=20079696.3 bus2=10549020.3 Units=km Length=0.09570423 Rmatrix=1.3546 Xmatrix=0.5314 Cmatrix=0
New Line.10549020_34085461 Phases=1 bus1=10549020.3 bus2=34085461.3 Units=km Length=0.12267947 Rmatrix=1.3546 Xmatrix=0.53140002 Cmatrix=0
New Line.34095590_10548907 Phases=3 bus1=34095590.1.2.3 bus2=10548907.1.2.3 Units=km Length=0.15130309 Rmatrix=[0.660123355148     0.112013337035     0.112013337035| 0.112013337035     0.660123355148     0.112013337035| 0.112013337035     0.112013337035     0.660123355148|] Xmatrix=[0.785106692612     0.315846677104     0.315846677104| 0.315846677104     0.785106692612     0.315846677104| 0.315846677104     0.315846677104     0.785106692612|] Cmatrix=[0                  0                  0| 0                  0                  0| 0                  0                  0|]
New Line.10548907_34085480 Phases=3 bus1=10548907.1.2.3 bus2=34085480.1.2.3 Units=km Length=0.061900727 Rmatrix=[0.660123333333     0.112013333333     0.112013333333| 0.112013333333     0.660123333334     0.112013333333| 0.112013333333     0.112013333333     0.660123333333|] Xmatrix=[0.785106666667     0.315846666667     0.315846666667| 0.315846666667     0.785106666666     0.315846666667| 0.315846666667     0.315846666667     0.785106666667|] Cmatrix=[0                  0                  0| 0                  0                  0| 0                  0                  0|]
New Line.10548965_34090005 Phases=3 bus1=10548965.1.2.3 bus2=34090005.1.2.3 Units=km Length=0.004042566 Rmatrix=[0.640633333333     0.105013333333     0.105013333333| 0.105013333333     0.640633333333     0.105013333333| 0.105013333333     0.105013333333     0.640633333333|] Xmatrix=[0.839726666667     0.319636666667     0.319636666667| 0.319636666667     0.839726666667     0.319636666667| 0.319636666667     0.319636666667     0.839726666666|] Cmatrix=[0                  0                  0| 0                  0                  0| 0                  0                  0|]
New Line.34090005_10559938 Phases=1 bus1=34090005.2 bus2=10559938.2 Units=km Length=0.014437875 Rmatrix=1.3515 Xmatrix=0.54581 Cmatrix=0
New Line.10548983_34085372 Phases=1 bus1=10548983.1 bus2=34085372.1 Units=km Length=0.005372673 Rmatrix=0.53562 Xmatrix=0.54302 Cmatrix=0
New Line.34085372_10548982 Phases=1 bus1=34085372.1 bus2=10548982.1 Units=km Length=0.067280566 Rmatrix=0.53562 Xmatrix=0.54302 Cmatrix=0
New Line.34085372_34095588 Phases=1 bus1=34085372.1 bus2=34095588.1 Units=km Length=0.047365903 Rmatrix=0.53562 Xmatrix=0.54302 Cmatrix=0
New Line.20416460_34054542 Phases=1 bus1=20416460.1 bus2=34054542.1 Units=km Length=0.082644674 Rmatrix=0.55774 Xmatrix=0.098425 Cmatrix=0
New Line.20396671_10579447 Phases=3 bus1=20396671.1.2.3 bus2=10579447.1.2.3 Units=km Length=0.008530931 Rmatrix=[1.4841             0.1326             0.1326| 0.1326             1.4841             0.1326| 0.1326             0.1326             1.4841|] Xmatrix=[0.918666666667     0.395716666667     0.395716666667| 0.395716666667     0.918666666667     0.395716666666| 0.395716666667     0.395716666666     0.918666666666|] Cmatrix=[0                  0                  0| 0                  0                  0| 0                  0                  0|]
New Line.20396671_10580155 Phases=3 bus1=20396671.1.2.3 bus2=10580155.1.2.3 Units=km Length=0.06944648 Rmatrix=[0.640633333333     0.105013333333     0.105013333333| 0.105013333333     0.640633333334     0.105013333333| 0.105013333333     0.105013333333     0.640633333332|] Xmatrix=[0.839726666666     0.319636666666     0.319636666667| 0.319636666666     0.839726666666     0.319636666666| 0.319636666667     0.319636666666     0.839726666666|] Cmatrix=[0                  0                  0| 0                  0                  0| 0                  0                  0|]
New Line.10579447_10558473 Phases=3 bus1=10579447.1.2.3 bus2=10558473.1.2.3 Units=km Length=0.08083391 Rmatrix=[1.4841             0.1326             0.1326| 0.1326             1.4841     0.132599999999| 0.1326     0.132599999999             1.4841|] Xmatrix=[0.918666666665     0.395716666667     0.395716666667| 0.395716666667     0.918666666668     0.395716666667| 0.395716666667     0.395716666667     0.918666666672|] Cmatrix=[0                  0                  0| 0                  0                  0| 0                  0                  0|]
New Line.10579447_10558478 Phases=1 bus1=10579447.3 bus2=10558478.3 Units=km Length=0.008857137 Rmatrix=0.53562 Xmatrix=0.54302 Cmatrix=0
New Line.10558520_10558583 Phases=1 bus1=10558520.2 bus2=10558583.2 Units=km Length=0.007279494 Rmatrix=0.53562 Xmatrix=0.54302 Cmatrix=0
New Line.10558520_10558521 Phases=3 bus1=10558520.1.2.3 bus2=10558521.1.2.3 Units=km Length=0.061385823 Rmatrix=[ 0.149604666667    0.0762826666667    0.0762826666667| 0.0762826666667     0.149604666667    0.0762826666667| 0.0762826666667    0.0762826666667     0.149604666667|] Xmatrix=[0.649266666667     0.278616666667     0.278616666667| 0.278616666667     0.649266666666     0.278616666667| 0.278616666667     0.278616666667     0.649266666667|] Cmatrix=[0                  0                  0| 0                  0                  0| 0                  0                  0|]
New Line.10558583_10558584 Phases=1 bus1=10558583.2 bus2=10558584.2 Units=km Length=0.067808598 Rmatrix=0.53562 Xmatrix=0.54302 Cmatrix=0
New Line.34091315_10555985 Phases=1 bus1=34091315.3 bus2=10555985.3 Units=km Length=0.17194301 Rmatrix=1.3546 Xmatrix=0.53140001 Cmatrix=0
New Line.10549011_10549010 Phases=3 bus1=10549011.1.2.3 bus2=10549010.1.2.3 Units=km Length=0.017276715 Rmatrix=[ 0.149604666667    0.0762826666665    0.0762826666666| 0.0762826666665     0.149604666667    0.0762826666668| 0.0762826666666    0.0762826666668     0.149604666667|] Xmatrix=[0.649266666667     0.278616666667     0.278616666667| 0.278616666667     0.649266666666     0.278616666667| 0.278616666667     0.278616666667     0.649266666667|] Cmatrix=[0                  0                  0| 0                  0                  0| 0                  0                  0|]
New Line.10549011_34085462 Phases=1 bus1=10549011.2 bus2=34085462.2 Units=km Length=0.003808213 Rmatrix=0.53562 Xmatrix=0.54302 Cmatrix=0
New Line.10549010_10549016 Phases=1 bus1=10549010.2 bus2=10549016.2 Units=km Length=0.017108953 Rmatrix=0.53562 Xmatrix=0.54302 Cmatrix=0
New Line.34084951_10548007 Phases=3 bus1=34084951.1.2.3 bus2=10548007.1.2.3 Units=km Length=0.063574085 Rmatrix=[ 0.346583333334    0.0762833333337     0.076283333334| 0.0762833333337     0.346583333332    0.0762833333339|  0.076283333334    0.0762833333339     0.346583333336|] Xmatrix=[       0.70388            0.27861     0.278609999999|        0.27861     0.703879999999     0.278609999999| 0.278609999999     0.278609999999     0.703879999998|] Cmatrix=[0                  0                  0| 0                  0                  0| 0                  0                  0|]
New Line.34084951_10579841 Phases=1 bus1=34084951.2 bus2=10579841.2 Units=km Length=0.013633559 Rmatrix=0.53562 Xmatrix=0.54302 Cmatrix=0
New Line.34084951_10579828 Phases=1 bus1=34084951.3 bus2=10579828.3 Units=km Length=0.013947924 Rmatrix=0.53562 Xmatrix=0.54302 Cmatrix=0
New Line.10558471_34087255 Phases=3 bus1=10558471.1.2.3 bus2=34087255.1.2.3 Units=km Length=0.004478293 Rmatrix=[1.4841             0.1326             0.1326| 0.1326             1.4841             0.1326| 0.1326             0.1326             1.4841|] Xmatrix=[0.918666666666     0.395716666667     0.395716666667| 0.395716666667     0.918666666667     0.395716666667| 0.395716666667     0.395716666667     0.918666666667|] Cmatrix=[0                  0                  0| 0                  0                  0| 0                  0                  0|]
New Line.34087255_34087254 Phases=3 bus1=34087255.1.2.3 bus2=34087254.1.2.3 Units=km Length=0.066936079 Rmatrix=[1.4841             0.1326             0.1326| 0.1326             1.4841             0.1326| 0.1326             0.1326             1.4841|] Xmatrix=[0.918666666666     0.395716666666     0.395716666666| 0.395716666666     0.918666666668     0.395716666667| 0.395716666666     0.395716666667     0.918666666667|] Cmatrix=[0                  0                  0| 0                  0                  0| 0                  0                  0|]
New Line.34087255_20028684 Phases=1 bus1=34087255.2 bus2=20028684.2 Units=km Length=0.013333018 Rmatrix=0.53562 Xmatrix=0.54302 Cmatrix=0
New Line.10549294_34085341 Phases=3 bus1=10549294.1.2.3 bus2=34085341.1.2.3 Units=km Length=0.003795505 Rmatrix=[ 0.346583333333    0.0762833333334    0.0762833333334| 0.0762833333334     0.346583333333    0.0762833333334| 0.0762833333334    0.0762833333334     0.346583333334|] Xmatrix=[0.70388            0.27861            0.27861| 0.27861     0.703880000001            0.27861| 0.27861            0.27861     0.703879999999|] Cmatrix=[0                  0                  0| 0                  0                  0| 0                  0                  0|]
New Line.34085341_10549269 Phases=3 bus1=34085341.1.2.3 bus2=10549269.1.2.3 Units=km Length=0.074116209 Rmatrix=[ 0.346583333333    0.0762833333332    0.0762833333334| 0.0762833333332     0.346583333334    0.0762833333334| 0.0762833333334    0.0762833333334     0.346583333333|] Xmatrix=[0.703879999999            0.27861            0.27861|        0.27861     0.703880000001     0.278609999999|        0.27861     0.278609999999            0.70388|] Cmatrix=[0                  0                  0| 0                  0                  0| 0                  0                  0|]
New Line.34085341_10549295 Phases=1 bus1=34085341.2 bus2=10549295.2 Units=km Length=0.013511757 Rmatrix=1.3515 Xmatrix=0.54581 Cmatrix=0
New Line.34085341_10573493 Phases=1 bus1=34085341.3 bus2=10573493.3 Units=km Length=0.013833219 Rmatrix=0.53562 Xmatrix=0.54302 Cmatrix=0
New Line.34086019_20437313 Phases=1 bus1=34086019.1 bus2=20437313.1 Units=km Length=0.21682499 Rmatrix=1.3515 Xmatrix=0.54581 Cmatrix=0
New Line.20437313_34086011 Phases=1 bus1=20437313.1 bus2=34086011.1 Units=km Length=0.23943788 Rmatrix=1.3515 Xmatrix=0.54581 Cmatrix=0
New Line.20437313_20437314 Phases=1 bus1=20437313.1 bus2=20437314.1 Units=km Length=0.028500678 Rmatrix=0.53562 Xmatrix=0.54302 Cmatrix=0
New Line.34085040_10579118 Phases=1 bus1=34085040.1 bus2=10579118.1 Units=km Length=0.12714042 Rmatrix=1.3515 Xmatrix=0.54581 Cmatrix=0
New Line.10579118_34085321 Phases=1 bus1=10579118.1 bus2=34085321.1 Units=km Length=0.003487076 Rmatrix=1.3515 Xmatrix=0.54581 Cmatrix=0
New Line.10579118_10556735 Phases=1 bus1=10579118.1 bus2=10556735.1 Units=km Length=0.11334602 Rmatrix=0.53562001 Xmatrix=0.54302001 Cmatrix=0
New Line.34086404_10558577 Phases=1 bus1=34086404.3 bus2=10558577.3 Units=km Length=0.092912186 Rmatrix=1.3515 Xmatrix=0.54581 Cmatrix=0
New Line.34086404_10558578 Phases=1 bus1=34086404.3 bus2=10558578.3 Units=km Length=0.017789837 Rmatrix=0.53562 Xmatrix=0.54302 Cmatrix=0
New Line.10558577_20456673 Phases=1 bus1=10558577.3 bus2=20456673.3 Units=km Length=0.090020763 Rmatrix=1.3515 Xmatrix=0.54581 Cmatrix=0
New Line.10558577_20456674 Phases=1 bus1=10558577.3 bus2=20456674.3 Units=km Length=0.029649424 Rmatrix=0.53562 Xmatrix=0.54302 Cmatrix=0
New Line.10579019_10549426 Phases=1 bus1=10579019.2 bus2=10549426.2 Units=km Length=0.013790658 Rmatrix=0.53562 Xmatrix=0.54302 Cmatrix=0
New Line.10579019_34085312 Phases=3 bus1=10579019.1.2.3 bus2=34085312.1.2.3 Units=km Length=0.003283263 Rmatrix=[ 0.346583333333    0.0762833333334    0.0762833333333| 0.0762833333334     0.346583333333    0.0762833333332| 0.0762833333333    0.0762833333332     0.346583333333|] Xmatrix=[0.70388            0.27861            0.27861| 0.27861            0.70388            0.27861| 0.27861            0.27861     0.703880000001|] Cmatrix=[0                  0                  0| 0                  0                  0| 0                  0                  0|]
New Line.10549426_10549286 Phases=1 bus1=10549426.2 bus2=10549286.2 Units=km Length=0.055301734 Rmatrix=0.53562 Xmatrix=0.54302 Cmatrix=0
New Line.10548987_10548988 Phases=1 bus1=10548987.2 bus2=10548988.2 Units=km Length=0.072648168 Rmatrix=0.53562 Xmatrix=0.54302 Cmatrix=0
New Line.10548987_34085371 Phases=1 bus1=10548987.2 bus2=34085371.2 Units=km Length=0.02544613 Rmatrix=0.53562 Xmatrix=0.54302 Cmatrix=0
New Line.10548988_34084592 Phases=1 bus1=10548988.2 bus2=34084592.2 Units=km Length=0.003870648 Rmatrix=0.53562 Xmatrix=0.54302 Cmatrix=0
New Line.10540779_10543795 Phases=3 bus1=10540779.1.2.3 bus2=10543795.1.2.3 Units=km Length=0.082814673 Rmatrix=[ 0.346583333333    0.0762833333333    0.0762833333334| 0.0762833333333     0.346583333333    0.0762833333333| 0.0762833333334    0.0762833333333     0.346583333333|] Xmatrix=[0.70388            0.27861            0.27861| 0.27861            0.70388            0.27861| 0.27861            0.27861            0.70388|] Cmatrix=[0                  0                  0| 0                  0                  0| 0                  0                  0|]
New Line.10543795_34095661 Phases=3 bus1=10543795.1.2.3 bus2=34095661.1.2.3 Units=km Length=0.062669875 Rmatrix=[ 0.346583333333    0.0762833333333    0.0762833333334| 0.0762833333333     0.346583333334    0.0762833333333| 0.0762833333334    0.0762833333333     0.346583333333|] Xmatrix=[0.703880000001            0.27861            0.27861|        0.27861     0.703880000001            0.27861|        0.27861            0.27861     0.703879999998|] Cmatrix=[0                  0                  0| 0                  0                  0| 0                  0                  0|]
New Line.10558563_34086801 Phases=1 bus1=10558563.3 bus2=34086801.3 Units=km Length=0.11245337 Rmatrix=0.53561998 Xmatrix=0.54301998 Cmatrix=0
New Line.34086801_10558562 Phases=1 bus1=34086801.3 bus2=10558562.3 Units=km Length=0.10339577 Rmatrix=0.53562001 Xmatrix=0.54302001 Cmatrix=0
New Line.10549229_34085286 Phases=3 bus1=10549229.1.2.3 bus2=34085286.1.2.3 Units=km Length=0.004610233 Rmatrix=[ 0.149604666667    0.0762826666666    0.0762826666666| 0.0762826666666     0.149604666667    0.0762826666667| 0.0762826666666    0.0762826666667     0.149604666667|] Xmatrix=[0.649266666666     0.278616666667     0.278616666667| 0.278616666667     0.649266666667     0.278616666667| 0.278616666667     0.278616666667     0.649266666667|] Cmatrix=[0                  0                  0| 0                  0                  0| 0                  0                  0|]
New Line.10549229_10559537 Phases=1 bus1=10549229.1 bus2=10559537.1 Units=km Length=0.013455512 Rmatrix=1.3546 Xmatrix=0.5314 Cmatrix=0
New Line.10549229_10549231 Phases=1 bus1=10549229.2 bus2=10549231.2 Units=km Length=0.014037915 Rmatrix=0.53562 Xmatrix=0.54302 Cmatrix=0
New Line.34085286_10549226 Phases=3 bus1=34085286.1.2.3 bus2=10549226.1.2.3 Units=km Length=0.096128139 Rmatrix=[ 0.149604666667    0.0762826666667    0.0762826666667| 0.0762826666667     0.149604666667    0.0762826666668| 0.0762826666667    0.0762826666668     0.149604666667|] Xmatrix=[0.649266666667     0.278616666667     0.278616666667| 0.278616666667     0.649266666668     0.278616666666| 0.278616666667     0.278616666666     0.649266666668|] Cmatrix=[0                  0                  0| 0                  0                  0| 0                  0                  0|]
New Line.34095644_20396847 Phases=1 bus1=34095644.1 bus2=20396847.1 Units=km Length=0.007242332 Rmatrix=0.53562 Xmatrix=0.54302 Cmatrix=0
New Line.34095644_20396846 Phases=3 bus1=34095644.1.2.3 bus2=20396846.1.2.3 Units=km Length=0.45511866 Rmatrix=[0.660123331883     0.112013333087     0.112013333087| 0.112013333087     0.660123331883     0.112013333087| 0.112013333087     0.112013333087     0.660123331883|] Xmatrix=[0.785106664945     0.315846665974     0.315846665974| 0.315846665974     0.785106664941     0.315846665973| 0.315846665974     0.315846665973     0.785106664943|] Cmatrix=[0                  0                  0| 0                  0                  0| 0                  0                  0|]
New Line.20396847_20396849 Phases=1 bus1=20396847.1 bus2=20396849.1 Units=km Length=0.009975549 Rmatrix=0.53562 Xmatrix=0.54302 Cmatrix=0
New Line.10574852_10574854 Phases=1 bus1=10574852.3 bus2=10574854.3 Units=km Length=0.039272164 Rmatrix=0.53562 Xmatrix=0.54302 Cmatrix=0
New Line.10574852_10574853 Phases=1 bus1=10574852.3 bus2=10574853.3 Units=km Length=0.10219466 Rmatrix=1.3546 Xmatrix=0.53139999 Cmatrix=0
New Line.34086415_10558570 Phases=1 bus1=34086415.3 bus2=10558570.3 Units=km Length=0.28277309 Rmatrix=0.53561999 Xmatrix=0.54301999 Cmatrix=0
New Line.10549217_10549307 Phases=1 bus1=10549217.2 bus2=10549307.2 Units=km Length=0.007677543 Rmatrix=1.3515 Xmatrix=0.54581 Cmatrix=0
New Line.10549217_10549216 Phases=3 bus1=10549217.1.2.3 bus2=10549216.1.2.3 Units=km Length=0.037502619 Rmatrix=[ 0.149604666667    0.0762826666667    0.0762826666667| 0.0762826666667     0.149604666667    0.0762826666666| 0.0762826666667    0.0762826666666     0.149604666667|] Xmatrix=[0.649266666667     0.278616666667     0.278616666667| 0.278616666667     0.649266666666     0.278616666667| 0.278616666667     0.278616666667     0.649266666667|] Cmatrix=[0                  0                  0| 0                  0                  0| 0                  0                  0|]
New Line.10549307_10549309 Phases=1 bus1=10549307.2 bus2=10549309.2 Units=km Length=0.081656781 Rmatrix=1.3515 Xmatrix=0.54581 Cmatrix=0
New Line.10549220_10540779 Phases=3 bus1=10549220.1.2.3 bus2=10540779.1.2.3 Units=km Length=0.0132246 Rmatrix=[ 0.346583333333    0.0762833333333    0.0762833333333| 0.0762833333333     0.346583333333    0.0762833333333| 0.0762833333333    0.0762833333333     0.346583333333|] Xmatrix=[0.70388            0.27861            0.27861| 0.27861            0.70388            0.27861| 0.27861            0.27861            0.70388|] Cmatrix=[0                  0                  0| 0                  0                  0| 0                  0                  0|]
New Line.10549220_10549219 Phases=3 bus1=10549220.1.2.3 bus2=10549219.1.2.3 Units=km Length=0.052448504 Rmatrix=[ 0.149604666666     0.076282666667    0.0762826666662|  0.076282666667     0.149604666665    0.0762826666667| 0.0762826666662    0.0762826666667     0.149604666665|] Xmatrix=[0.649266666668     0.278616666667     0.278616666667| 0.278616666667     0.649266666669     0.278616666667| 0.278616666667     0.278616666667     0.649266666668|] Cmatrix=[0                  0                  0| 0                  0                  0| 0                  0                  0|]
New Line.10549220_20079696 Phases=1 bus1=10549220.3 bus2=20079696.3 Units=km Length=0.013560889 Rmatrix=1.3546 Xmatrix=0.5314 Cmatrix=0
New Line.34086011_40152453 Phases=1 bus1=34086011.1 bus2=40152453.1 Units=km Length=0.037963596 Rmatrix=0.53562 Xmatrix=0.54302 Cmatrix=0
New Line.34086011_40154810 Phases=1 bus1=34086011.1 bus2=40154810.1 Units=km Length=0.16351122 Rmatrix=1.3515 Xmatrix=0.54580999 Cmatrix=0
New Line.40152453_40156534 Phases=1 bus1=40152453.1 bus2=40156534.1 Units=km Length=0.009730346 Rmatrix=0.53562 Xmatrix=0.54302 Cmatrix=0
New Line.20344371_34086794 Phases=1 bus1=20344371.2 bus2=34086794.2 Units=km Length=0.049560183 Rmatrix=0.53562 Xmatrix=0.54302 Cmatrix=0
New Line.34086794_20344372 Phases=1 bus1=34086794.2 bus2=20344372.2 Units=km Length=0.053594034 Rmatrix=0.53562 Xmatrix=0.54302 Cmatrix=0
New Line.10549289_34085048 Phases=1 bus1=10549289.3 bus2=34085048.3 Units=km Length=0.070245096 Rmatrix=0.53562 Xmatrix=0.54302 Cmatrix=0
New Line.34084593_20350796 Phases=1 bus1=34084593.2 bus2=20350796.2 Units=km Length=0.063046173 Rmatrix=0.53562 Xmatrix=0.54302 Cmatrix=0
New Line.10573493_10573492 Phases=1 bus1=10573493.3 bus2=10573492.3 Units=km Length=0.033117836 Rmatrix=0.53562 Xmatrix=0.54302 Cmatrix=0
New Line.10573492_10573495 Phases=1 bus1=10573492.3 bus2=10573495.3 Units=km Length=0.069029487 Rmatrix=0.53562 Xmatrix=0.54302 Cmatrix=0
New Line.10573492_10573328 Phases=1 bus1=10573492.3 bus2=10573328.3 Units=km Length=0.090789079 Rmatrix=0.53562 Xmatrix=0.54302 Cmatrix=0
New Line.10558560_10558564 Phases=1 bus1=10558560.3 bus2=10558564.3 Units=km Length=0.007629393 Rmatrix=0.53562 Xmatrix=0.54302 Cmatrix=0
New Line.10558560_34096115 Phases=3 bus1=10558560.1.2.3 bus2=34096115.1.2.3 Units=km Length=0.093082827 Rmatrix=[ 0.149604666667    0.0762826666667    0.0762826666667| 0.0762826666667     0.149604666667    0.0762826666668| 0.0762826666667    0.0762826666668     0.149604666667|] Xmatrix=[0.649266666667     0.278616666667     0.278616666667| 0.278616666667     0.649266666667     0.278616666666| 0.278616666667     0.278616666666     0.649266666667|] Cmatrix=[0                  0                  0| 0                  0                  0| 0                  0                  0|]
New Line.10558564_10558563 Phases=1 bus1=10558564.3 bus2=10558563.3 Units=km Length=0.043874879 Rmatrix=0.53562 Xmatrix=0.54302 Cmatrix=0
New Line.10549274_10579019 Phases=3 bus1=10549274.1.2.3 bus2=10579019.1.2.3 Units=km Length=0.093377879 Rmatrix=[ 0.346583333335    0.0762833333352    0.0762833333341| 0.0762833333352     0.346583333332     0.076283333332| 0.0762833333341     0.076283333332     0.346583333332|] Xmatrix=[0.703880000001     0.278609999996     0.278609999999| 0.278609999996     0.703880000011     0.278610000004| 0.278609999999     0.278610000004            0.70388|] Cmatrix=[0                  0                  0| 0                  0                  0| 0                  0                  0|]
New Line.10549274_10549291 Phases=1 bus1=10549274.2 bus2=10549291.2 Units=km Length=0.012893357 Rmatrix=0.53562 Xmatrix=0.54302 Cmatrix=0
New Line.10549274_10549283 Phases=1 bus1=10549274.2 bus2=10549283.2 Units=km Length=0.012832531 Rmatrix=0.53562 Xmatrix=0.54302 Cmatrix=0
New Line.10549291_10549285 Phases=1 bus1=10549291.2 bus2=10549285.2 Units=km Length=0.063498262 Rmatrix=0.53562 Xmatrix=0.54302 Cmatrix=0
New Line.10548967_10548968 Phases=1 bus1=10548967.1 bus2=10548968.1 Units=km Length=0.032707558 Rmatrix=0.53562 Xmatrix=0.54302 Cmatrix=0
New Line.10561915_10532911 Phases=1 bus1=10561915.3 bus2=10532911.3 Units=km Length=0.19252891 Rmatrix=0.53561999 Xmatrix=0.54301999 Cmatrix=0
New Line.10532911_34086802 Phases=1 bus1=10532911.3 bus2=34086802.3 Units=km Length=0.15446831 Rmatrix=0.53562001 Xmatrix=0.54302001 Cmatrix=0
New Line.34086302_34097398 Phases=1 bus1=34086302.3 bus2=34097398.3 Units=km Length=0.065061204 Rmatrix=1.3546 Xmatrix=0.5314 Cmatrix=0
New Line.34086302_10558581 Phases=1 bus1=34086302.3 bus2=10558581.3 Units=km Length=0.082496962 Rmatrix=0.53562 Xmatrix=0.54302 Cmatrix=0
New Line.34097398_10574852 Phases=1 bus1=34097398.3 bus2=10574852.3 Units=km Length=0.077597577 Rmatrix=1.3546 Xmatrix=0.5314 Cmatrix=0
New Line.34086403_10558518 Phases=3 bus1=34086403.1.2.3 bus2=10558518.1.2.3 Units=km Length=0.075318614 Rmatrix=[ 0.149604666667    0.0762826666666    0.0762826666666| 0.0762826666666     0.149604666667    0.0762826666667| 0.0762826666666    0.0762826666667     0.149604666667|] Xmatrix=[0.649266666667     0.278616666667     0.278616666667| 0.278616666667     0.649266666667     0.278616666667| 0.278616666667     0.278616666667     0.649266666667|] Cmatrix=[0                  0                  0| 0                  0                  0| 0                  0                  0|]
New Line.34085321_34085042 Phases=1 bus1=34085321.1 bus2=34085042.1 Units=km Length=0.093506829 Rmatrix=1.3515 Xmatrix=0.54581 Cmatrix=0
New Line.34085042_10579071 Phases=1 bus1=34085042.1 bus2=10579071.1 Units=km Length=0.18960424 Rmatrix=1.3515 Xmatrix=0.54580999 Cmatrix=0
New Line.34055522_20344333 Phases=1 bus1=34055522.1 bus2=20344333.1 Units=km Length=0.16054906 Rmatrix=0.55774 Xmatrix=0.098425 Cmatrix=0
New Line.20344333_34054980 Phases=1 bus1=20344333.1 bus2=34054980.1 Units=km Length=0.15056637 Rmatrix=0.55774001 Xmatrix=0.098425002 Cmatrix=0
New Line.34086799_10560618 Phases=1 bus1=34086799.3 bus2=10560618.3 Units=km Length=0.07835821 Rmatrix=0.53562 Xmatrix=0.54302 Cmatrix=0
New Line.34086799_10585091 Phases=1 bus1=34086799.3 bus2=10585091.3 Units=km Length=0.091559236 Rmatrix=0.53562 Xmatrix=0.54302 Cmatrix=0
New Line.10558559_10558558 Phases=1 bus1=10558559.2 bus2=10558558.2 Units=km Length=0.009070396 Rmatrix=0.53562 Xmatrix=0.54302 Cmatrix=0
New Line.10558558_10558646 Phases=1 bus1=10558558.2 bus2=10558646.2 Units=km Length=0.18315229 Rmatrix=0.55773999 Xmatrix=0.098424998 Cmatrix=0
New Line.34085480_10548960 Phases=1 bus1=34085480.2 bus2=10548960.2 Units=km Length=0.009036101 Rmatrix=0.53562 Xmatrix=0.54302 Cmatrix=0
New Line.34085480_34084616 Phases=3 bus1=34085480.1.2.3 bus2=34084616.1.2.3 Units=km Length=0.048916855 Rmatrix=[0.660123333333     0.112013333333     0.112013333333| 0.112013333333     0.660123333333     0.112013333333| 0.112013333333     0.112013333333     0.660123333333|] Xmatrix=[0.785106666667     0.315846666667     0.315846666667| 0.315846666667     0.785106666667     0.315846666667| 0.315846666667     0.315846666667     0.785106666667|] Cmatrix=[0                  0                  0| 0                  0                  0| 0                  0                  0|]
New Line.10548960_10548961 Phases=1 bus1=10548960.2 bus2=10548961.2 Units=km Length=0.11061415 Rmatrix=0.53562001 Xmatrix=0.54302001 Cmatrix=0
New Line.10558524_10526890 Phases=3 bus1=10558524.1.2.3 bus2=10526890.1.2.3 Units=km Length=0.053695567 Rmatrix=[0.640633333333     0.105013333333     0.105013333333| 0.105013333333     0.640633333333     0.105013333333| 0.105013333333     0.105013333333     0.640633333333|] Xmatrix=[0.839726666667     0.319636666667     0.319636666667| 0.319636666667     0.839726666667     0.319636666667| 0.319636666667     0.319636666667     0.839726666667|] Cmatrix=[0                  0                  0| 0                  0                  0| 0                  0                  0|]
New Line.34086805_34097392 Phases=1 bus1=34086805.3 bus2=34097392.3 Units=km Length=0.11488538 Rmatrix=1.3515 Xmatrix=0.54580998 Cmatrix=0
New Line.34097392_34091439 Phases=1 bus1=34097392.3 bus2=34091439.3 Units=km Length=0.099823811 Rmatrix=1.3515 Xmatrix=0.54581 Cmatrix=0
New Line.10524061_34086382 Phases=1 bus1=10524061.3 bus2=34086382.3 Units=km Length=0.070669954 Rmatrix=0.53562 Xmatrix=0.54302 Cmatrix=0
New Line.34086382_10524153 Phases=1 bus1=34086382.3 bus2=10524153.3 Units=km Length=0.063547198 Rmatrix=0.53562 Xmatrix=0.54302 Cmatrix=0
New Line.34086382_10524870 Phases=1 bus1=34086382.3 bus2=10524870.3 Units=km Length=0.007619422 Rmatrix=0.53562 Xmatrix=0.54302 Cmatrix=0
New Line.34085037_34085036 Phases=3 bus1=34085037.1.2.3 bus2=34085036.1.2.3 Units=km Length=0.094771115 Rmatrix=[ 0.346583333333    0.0762833333333    0.0762833333333| 0.0762833333333     0.346583333333    0.0762833333333| 0.0762833333333    0.0762833333333     0.346583333333|] Xmatrix=[0.70388            0.27861            0.27861| 0.27861            0.70388            0.27861| 0.27861            0.27861            0.70388|] Cmatrix=[0                  0                  0| 0                  0                  0| 0                  0                  0|]
New Line.34085036_10549278 Phases=3 bus1=34085036.1.2.3 bus2=10549278.1.2.3 Units=km Length=0.10376544 Rmatrix=[ 0.346583333333    0.0762833333334    0.0762833333333| 0.0762833333334     0.346583333333    0.0762833333333| 0.0762833333333    0.0762833333333     0.346583333333|] Xmatrix=[0.70388            0.27861            0.27861| 0.27861            0.70388            0.27861| 0.27861            0.27861            0.70388|] Cmatrix=[0                  0                  0| 0                  0                  0| 0                  0                  0|]
New Line.34086405_20251419 Phases=1 bus1=34086405.3 bus2=20251419.3 Units=km Length=0.052661933 Rmatrix=0.53562 Xmatrix=0.54302 Cmatrix=0
New Line.34086405_20251418 Phases=1 bus1=34086405.3 bus2=20251418.3 Units=km Length=0.082939484 Rmatrix=0.53562 Xmatrix=0.54302 Cmatrix=0
New Line.34095649_10560337 Phases=1 bus1=34095649.2 bus2=10560337.2 Units=km Length=0.064155538 Rmatrix=0.53562 Xmatrix=0.54302 Cmatrix=0
New Line.34095649_10560338 Phases=1 bus1=34095649.2 bus2=10560338.2 Units=km Length=0.10907495 Rmatrix=0.53562001 Xmatrix=0.54302001 Cmatrix=0
New Line.10558549_10558551 Phases=1 bus1=10558549.1 bus2=10558551.1 Units=km Length=0.04355428 Rmatrix=0.53562 Xmatrix=0.54302 Cmatrix=0
New Line.10558549_10558550 Phases=1 bus1=10558549.1 bus2=10558550.1 Units=km Length=0.092736737 Rmatrix=0.53562 Xmatrix=0.54302 Cmatrix=0
New Line.10558551_34086381 Phases=1 bus1=10558551.1 bus2=34086381.1 Units=km Length=0.002752055 Rmatrix=0.53562 Xmatrix=0.54302 Cmatrix=0
New Line.34085035_10549274 Phases=3 bus1=34085035.1.2.3 bus2=10549274.1.2.3 Units=km Length=0.056153464 Rmatrix=[ 0.346583333333    0.0762833333334    0.0762833333333| 0.0762833333334     0.346583333333    0.0762833333333| 0.0762833333333    0.0762833333333     0.346583333333|] Xmatrix=[0.70388            0.27861            0.27861| 0.27861            0.70388            0.27861| 0.27861            0.27861            0.70388|] Cmatrix=[0                  0                  0| 0                  0                  0| 0                  0                  0|]
New Line.10548909_10548952 Phases=1 bus1=10548909.1 bus2=10548952.1 Units=km Length=0.009522562 Rmatrix=0.53562 Xmatrix=0.54302 Cmatrix=0
New Line.10548909_10548910 Phases=3 bus1=10548909.1.2.3 bus2=10548910.1.2.3 Units=km Length=0.4410883 Rmatrix=[0.660123333333     0.112013333333     0.112013333333| 0.112013333333     0.660123333333     0.112013333333| 0.112013333333     0.112013333333     0.660123333333|] Xmatrix=[0.785106666667     0.315846666667     0.315846666667| 0.315846666667     0.785106666667     0.315846666667| 0.315846666667     0.315846666667     0.785106666667|] Cmatrix=[0                  0                  0| 0                  0                  0| 0                  0                  0|]
New Line.10548952_10548953 Phases=1 bus1=10548952.1 bus2=10548953.1 Units=km Length=0.089887106 Rmatrix=0.53562 Xmatrix=0.54302 Cmatrix=0
New Line.34086401_10524061 Phases=1 bus1=34086401.3 bus2=10524061.3 Units=km Length=0.087302147 Rmatrix=0.53562 Xmatrix=0.54302 Cmatrix=0
New Line.34096115_10558513 Phases=3 bus1=34096115.1.2.3 bus2=10558513.1.2.3 Units=km Length=0.10416613 Rmatrix=[0.149604663794     0.076282665202     0.076282665202| 0.076282665202     0.149604663794     0.076282665202| 0.076282665202     0.076282665202     0.149604663794|] Xmatrix=[  0.6492666542     0.278616661317     0.278616661317| 0.278616661317     0.649266654201     0.278616661317| 0.278616661317     0.278616661317     0.649266654201|] Cmatrix=[0                  0                  0| 0                  0                  0| 0                  0                  0|]
New Line.10558469_34086318 Phases=3 bus1=10558469.1.2.3 bus2=34086318.1.2.3 Units=km Length=0.003487981 Rmatrix=[1.4841             0.1326             0.1326| 0.1326             1.4841             0.1326| 0.1326             0.1326             1.4841|] Xmatrix=[0.918666666667     0.395716666667     0.395716666668| 0.395716666667     0.918666666667     0.395716666667| 0.395716666668     0.395716666667     0.918666666666|] Cmatrix=[0                  0                  0| 0                  0                  0| 0                  0                  0|]
New Line.10558469_10558484 Phases=1 bus1=10558469.2 bus2=10558484.2 Units=km Length=0.013416006 Rmatrix=0.53562 Xmatrix=0.54302 Cmatrix=0
New Line.34086318_34086324 Phases=3 bus1=34086318.1.2.3 bus2=34086324.1.2.3 Units=km Length=0.068276356 Rmatrix=[1.4841             0.1326             0.1326| 0.1326             1.4841             0.1326| 0.1326             0.1326             1.4841|] Xmatrix=[0.918666666667     0.395716666667     0.395716666666| 0.395716666667     0.918666666666     0.395716666667| 0.395716666666     0.395716666667     0.918666666665|] Cmatrix=[0                  0                  0| 0                  0                  0| 0                  0                  0|]
New Line.10579841_34084954 Phases=1 bus1=10579841.2 bus2=34084954.2 Units=km Length=0.050968706 Rmatrix=0.53562 Xmatrix=0.54302 Cmatrix=0
New Line.34084954_34084953 Phases=1 bus1=34084954.2 bus2=34084953.2 Units=km Length=0.067513993 Rmatrix=0.53562 Xmatrix=0.54302 Cmatrix=0
New Line.34085342_20079698 Phases=3 bus1=34085342.1.2.3 bus2=20079698.1.2.3 Units=km Length=0.029501515 Rmatrix=[0.640633333333     0.105013333333     0.105013333333| 0.105013333333     0.640633333334     0.105013333333| 0.105013333333     0.105013333333     0.640633333334|] Xmatrix=[0.839726666667     0.319636666666     0.319636666667| 0.319636666666     0.839726666668     0.319636666667| 0.319636666667     0.319636666667     0.839726666666|] Cmatrix=[0                  0                  0| 0                  0                  0| 0                  0                  0|]
New Line.20079698_20079699 Phases=3 bus1=20079698.1.2.3 bus2=20079699.1.2.3 Units=km Length=0.10406628 Rmatrix=[0.640633351802     0.105013336361     0.105013336361| 0.105013336361     0.640633351801     0.105013336361| 0.105013336361     0.105013336361     0.640633351801|] Xmatrix=[0.839726690874      0.31963667588     0.319636675882|  0.31963667588     0.839726690876     0.319636675881| 0.319636675882     0.319636675881     0.839726690875|] Cmatrix=[0                  0                  0| 0                  0                  0| 0                  0                  0|]
New Line.34084666_10559617 Phases=1 bus1=34084666.2 bus2=10559617.2 Units=km Length=0.044209203 Rmatrix=1.3515 Xmatrix=0.54581 Cmatrix=0
New Line.10559617_34095650 Phases=1 bus1=10559617.2 bus2=34095650.2 Units=km Length=0.025022442 Rmatrix=1.3515 Xmatrix=0.54581 Cmatrix=0
New Line.10559617_10560401 Phases=1 bus1=10559617.2 bus2=10560401.2 Units=km Length=0.069790873 Rmatrix=1.3515 Xmatrix=0.54581 Cmatrix=0
New Line.10558543_10558545 Phases=1 bus1=10558543.2 bus2=10558545.2 Units=km Length=0.041969702 Rmatrix=0.53562 Xmatrix=0.54302 Cmatrix=0
New Line.10558543_34096113 Phases=1 bus1=10558543.2 bus2=34096113.2 Units=km Length=0.003795642 Rmatrix=0.53562 Xmatrix=0.54302 Cmatrix=0
New Line.10549262_10549263 Phases=1 bus1=10549262.1 bus2=10549263.1 Units=km Length=0.013894296 Rmatrix=0.53562 Xmatrix=0.54302 Cmatrix=0
New Line.10548946_10548945 Phases=2 bus1=10548946.2.3 bus2=10548945.2.3 Units=km Length=0.010045174 Rmatrix=[0.63995            0.10433| 0.10433            0.63995|] Xmatrix=[0.841313333333     0.283693333333| 0.283693333333     0.841313333333|] Cmatrix=[0                  0| 0                  0|]
New Line.34085262_34095665 Phases=1 bus1=34085262.2 bus2=34095665.2 Units=km Length=0.053938022 Rmatrix=1.3515 Xmatrix=0.54581 Cmatrix=0
New Line.34095665_34085260 Phases=1 bus1=34095665.2 bus2=34085260.2 Units=km Length=0.084035649 Rmatrix=1.3515 Xmatrix=0.54581 Cmatrix=0
New Line.10559090_34086306 Phases=1 bus1=10559090.1 bus2=34086306.1 Units=km Length=0.050564577 Rmatrix=1.3546 Xmatrix=0.5314 Cmatrix=0
New Line.34086306_34086305 Phases=1 bus1=34086306.1 bus2=34086305.1 Units=km Length=0.046586899 Rmatrix=1.3546 Xmatrix=0.5314 Cmatrix=0
New Line.34095650_34084664 Phases=1 bus1=34095650.2 bus2=34084664.2 Units=km Length=0.076326116 Rmatrix=1.3515 Xmatrix=0.54581 Cmatrix=0
New Line.34084664_34084665 Phases=1 bus1=34084664.2 bus2=34084665.2 Units=km Length=0.088621155 Rmatrix=1.3515 Xmatrix=0.54581 Cmatrix=0
New Line.10548934_20014991 Phases=3 bus1=10548934.1.2.3 bus2=20014991.1.2.3 Units=km Length=0.071426759 Rmatrix=[0.640633333333     0.105013333333     0.105013333333| 0.105013333333     0.640633333333     0.105013333333| 0.105013333333     0.105013333333     0.640633333333|] Xmatrix=[0.839726666667     0.319636666667     0.319636666666| 0.319636666667     0.839726666667     0.319636666666| 0.319636666666     0.319636666666     0.839726666666|] Cmatrix=[0                  0                  0| 0                  0                  0| 0                  0                  0|]
New Line.20014991_34095589 Phases=3 bus1=20014991.1.2.3 bus2=34095589.1.2.3 Units=km Length=0.07208044 Rmatrix=[0.640633333333     0.105013333333     0.105013333333| 0.105013333333     0.640633333334     0.105013333333| 0.105013333333     0.105013333333     0.640633333333|] Xmatrix=[0.839726666666     0.319636666667     0.319636666667| 0.319636666667     0.839726666667     0.319636666667| 0.319636666667     0.319636666667     0.839726666667|] Cmatrix=[0                  0                  0| 0                  0                  0| 0                  0                  0|]
New Line.10559590_10559587 Phases=1 bus1=10559590.3 bus2=10559587.3 Units=km Length=0.13517092 Rmatrix=0.53562001 Xmatrix=0.54302001 Cmatrix=0
New Line.10558515_10558525 Phases=3 bus1=10558515.1.2.3 bus2=10558525.1.2.3 Units=km Length=0.054309948 Rmatrix=[0.640633333331     0.105013333334     0.105013333334| 0.105013333334     0.640633333331     0.105013333334| 0.105013333334     0.105013333334     0.640633333334|] Xmatrix=[0.839726666662     0.319636666666     0.319636666666| 0.319636666666     0.839726666663     0.319636666667| 0.319636666666     0.319636666667     0.839726666667|] Cmatrix=[0                  0                  0| 0                  0                  0| 0                  0                  0|]
New Line.10558515_34086410 Phases=3 bus1=10558515.1.2.3 bus2=34086410.1.2.3 Units=km Length=0.003802821 Rmatrix=[ 0.149604666667    0.0762826666666    0.0762826666667| 0.0762826666666     0.149604666667    0.0762826666667| 0.0762826666667    0.0762826666667     0.149604666667|] Xmatrix=[0.649266666667     0.278616666666     0.278616666667| 0.278616666666     0.649266666666     0.278616666667| 0.278616666667     0.278616666667     0.649266666667|] Cmatrix=[0                  0                  0| 0                  0                  0| 0                  0                  0|]
New Line.10558525_10558524 Phases=3 bus1=10558525.1.2.3 bus2=10558524.1.2.3 Units=km Length=0.088020801 Rmatrix=[0.640633333333     0.105013333333     0.105013333333| 0.105013333333     0.640633333333     0.105013333333| 0.105013333333     0.105013333333     0.640633333333|] Xmatrix=[0.839726666666     0.319636666667     0.319636666667| 0.319636666667     0.839726666667     0.319636666667| 0.319636666667     0.319636666667     0.839726666667|] Cmatrix=[0                  0                  0| 0                  0                  0| 0                  0                  0|]
New Line.34095666_10549255 Phases=1 bus1=34095666.3 bus2=10549255.3 Units=km Length=0.21354127 Rmatrix=1.3515 Xmatrix=0.54581001 Cmatrix=0
New Line.34095666_10549259 Phases=1 bus1=34095666.3 bus2=10549259.3 Units=km Length=0.11403526 Rmatrix=0.53562 Xmatrix=0.54302 Cmatrix=0
New Line.10549255_34095667 Phases=1 bus1=10549255.3 bus2=34095667.3 Units=km Length=0.051468815 Rmatrix=1.3515 Xmatrix=0.54581 Cmatrix=0
New Line.34095581_10548940 Phases=1 bus1=34095581.2 bus2=10548940.2 Units=km Length=0.19527526 Rmatrix=0.53562001 Xmatrix=0.54302001 Cmatrix=0
New Line.10548940_34095580 Phases=1 bus1=10548940.2 bus2=34095580.2 Units=km Length=0.080738297 Rmatrix=0.53562 Xmatrix=0.54302 Cmatrix=0
New Line.10549219_34085342 Phases=3 bus1=10549219.1.2.3 bus2=34085342.1.2.3 Units=km Length=0.003799775 Rmatrix=[0.640633333333     0.105013333333     0.105013333333| 0.105013333333     0.640633333334     0.105013333333| 0.105013333333     0.105013333333     0.640633333333|] Xmatrix=[0.839726666668     0.319636666667     0.319636666667| 0.319636666667     0.839726666667     0.319636666667| 0.319636666667     0.319636666667     0.839726666668|] Cmatrix=[0                  0                  0| 0                  0                  0| 0                  0                  0|]
New Line.10549219_34095659 Phases=3 bus1=10549219.1.2.3 bus2=34095659.1.2.3 Units=km Length=0.091671964 Rmatrix=[ 0.149604666667    0.0762826666669    0.0762826666669| 0.0762826666669     0.149604666667    0.0762826666666| 0.0762826666669    0.0762826666666     0.149604666666|] Xmatrix=[0.649266666667     0.278616666667     0.278616666667| 0.278616666667     0.649266666667     0.278616666667| 0.278616666667     0.278616666667     0.649266666668|] Cmatrix=[0                  0                  0| 0                  0                  0| 0                  0                  0|]
New Line.34095659_10542105 Phases=3 bus1=34095659.1.2.3 bus2=10542105.1.2.3 Units=km Length=0.088697699 Rmatrix=[ 0.149604666666    0.0762826666667    0.0762826666667| 0.0762826666667     0.149604666667    0.0762826666667| 0.0762826666667    0.0762826666667     0.149604666667|] Xmatrix=[0.649266666667     0.278616666667     0.278616666667| 0.278616666667     0.649266666667     0.278616666667| 0.278616666667     0.278616666667     0.649266666667|] Cmatrix=[0                  0                  0| 0                  0                  0| 0                  0                  0|]
New Line.10558522_34086300 Phases=3 bus1=10558522.1.2.3 bus2=34086300.1.2.3 Units=km Length=0.003809966 Rmatrix=[ 0.149604666667    0.0762826666666    0.0762826666665| 0.0762826666666     0.149604666666    0.0762826666668| 0.0762826666665    0.0762826666668     0.149604666666|] Xmatrix=[0.649266666667     0.278616666667     0.278616666667| 0.278616666667     0.649266666666     0.278616666667| 0.278616666667     0.278616666667     0.649266666667|] Cmatrix=[0                  0                  0| 0                  0                  0| 0                  0                  0|]
New Line.10558522_34086400 Phases=1 bus1=10558522.3 bus2=34086400.3 Units=km Length=0.11686554 Rmatrix=1.3546 Xmatrix=0.53139999 Cmatrix=0
New Line.34086300_10558523 Phases=3 bus1=34086300.1.2.3 bus2=10558523.1.2.3 Units=km Length=0.11860348 Rmatrix=[ 0.149604664144    0.0762826653801    0.0762826653803| 0.0762826653801     0.149604664144    0.0762826653804| 0.0762826653803    0.0762826653804     0.149604664144|] Xmatrix=[0.649266655717     0.278616661968     0.278616661968| 0.278616661968     0.649266655718     0.278616661969| 0.278616661968     0.278616661969     0.649266655719|] Cmatrix=[0                  0                  0| 0                  0                  0| 0                  0                  0|]
New Line.34084602_34084601 Phases=3 bus1=34084602.1.2.3 bus2=34084601.1.2.3 Units=km Length=0.03676732 Rmatrix=[0.640633333333     0.105013333333     0.105013333333| 0.105013333333     0.640633333333     0.105013333333| 0.105013333333     0.105013333333     0.640633333333|] Xmatrix=[0.839726666667     0.319636666667     0.319636666667| 0.319636666667     0.839726666667     0.319636666667| 0.319636666667     0.319636666667     0.839726666667|] Cmatrix=[0                  0                  0| 0                  0                  0| 0                  0                  0|]
New Line.34084601_10548901 Phases=3 bus1=34084601.1.2.3 bus2=10548901.1.2.3 Units=km Length=0.036764445 Rmatrix=[0.640633333333     0.105013333333     0.105013333333| 0.105013333333     0.640633333333     0.105013333333| 0.105013333333     0.105013333333     0.640633333333|] Xmatrix=[0.839726666666     0.319636666667     0.319636666667| 0.319636666667     0.839726666666     0.319636666667| 0.319636666667     0.319636666667     0.839726666667|] Cmatrix=[0                  0                  0| 0                  0                  0| 0                  0                  0|]
New Line.34084601_10548986 Phases=1 bus1=34084601.1 bus2=10548986.1 Units=km Length=0.058500041 Rmatrix=0.53562 Xmatrix=0.54302 Cmatrix=0
New Line.10578709_10580378 Phases=1 bus1=10578709.2 bus2=10580378.2 Units=km Length=0.086981739 Rmatrix=0.53562 Xmatrix=0.54302 Cmatrix=0
New Line.10578709_34085045 Phases=1 bus1=10578709.2 bus2=34085045.2 Units=km Length=0.00335113 Rmatrix=1.3515 Xmatrix=0.54581 Cmatrix=0
New Line.34086007_10559515 Phases=1 bus1=34086007.1 bus2=10559515.1 Units=km Length=0.068496198 Rmatrix=1.3546 Xmatrix=0.5314 Cmatrix=0
New Line.34086007_10559562 Phases=1 bus1=34086007.1 bus2=10559562.1 Units=km Length=0.15108138 Rmatrix=0.53562001 Xmatrix=0.54302001 Cmatrix=0
New Line.10559515_34097394 Phases=1 bus1=10559515.1 bus2=34097394.1 Units=km Length=0.004156753 Rmatrix=1.3546 Xmatrix=0.5314 Cmatrix=0
New Line.10559515_10559506 Phases=1 bus1=10559515.1 bus2=10559506.1 Units=km Length=0.014701186 Rmatrix=1.3546 Xmatrix=0.5314 Cmatrix=0
New Line.10558518_10553426 Phases=3 bus1=10558518.1.2.3 bus2=10553426.1.2.3 Units=km Length=0.12312287 Rmatrix=[ 0.149604664237    0.0762826654276    0.0762826654275| 0.0762826654276     0.149604664237    0.0762826654276| 0.0762826654275    0.0762826654276     0.149604664236|] Xmatrix=[ 0.64926665612     0.278616662141     0.278616662142| 0.278616662141      0.64926665612     0.278616662142| 0.278616662142     0.278616662142     0.649266656123|] Cmatrix=[0                  0                  0| 0                  0                  0| 0                  0                  0|]
New Line.10558518_10558546 Phases=1 bus1=10558518.3 bus2=10558546.3 Units=km Length=0.007577866 Rmatrix=0.53562 Xmatrix=0.54302 Cmatrix=0
New Line.10549247_10549248 Phases=1 bus1=10549247.3 bus2=10549248.3 Units=km Length=0.063198415 Rmatrix=0.53562 Xmatrix=0.54302 Cmatrix=0
New Line.34090007_10548933 Phases=3 bus1=34090007.1.2.3 bus2=10548933.1.2.3 Units=km Length=0.029052249 Rmatrix=[0.640633333334     0.105013333333     0.105013333333| 0.105013333333     0.640633333333     0.105013333333| 0.105013333333     0.105013333333     0.640633333333|] Xmatrix=[0.839726666667     0.319636666665     0.319636666665| 0.319636666665     0.839726666666     0.319636666667| 0.319636666665     0.319636666667     0.839726666669|] Cmatrix=[0                  0                  0| 0                  0                  0| 0                  0                  0|]
New Line.10548933_34090000 Phases=3 bus1=10548933.1.2.3 bus2=34090000.1.2.3 Units=km Length=0.005361351 Rmatrix=[0.640633333333     0.105013333333     0.105013333333| 0.105013333333     0.640633333333     0.105013333333| 0.105013333333     0.105013333333     0.640633333333|] Xmatrix=[0.839726666667     0.319636666667     0.319636666666| 0.319636666667     0.839726666666     0.319636666667| 0.319636666666     0.319636666667     0.839726666667|] Cmatrix=[0                  0                  0| 0                  0                  0| 0                  0                  0|]
New Line.10560281_34095649 Phases=1 bus1=10560281.2 bus2=34095649.2 Units=km Length=0.004722043 Rmatrix=0.53562 Xmatrix=0.54302 Cmatrix=0
New Line.34095668_34086016 Phases=1 bus1=34095668.2 bus2=34086016.2 Units=km Length=0.078902474 Rmatrix=1.3515 Xmatrix=0.54581 Cmatrix=0
New Line.34086016_34086017 Phases=1 bus1=34086016.2 bus2=34086017.2 Units=km Length=0.003797145 Rmatrix=1.3515 Xmatrix=0.54581 Cmatrix=0
New Line.34054973_34057797 Phases=1 bus1=34054973.3 bus2=34057797.3 Units=km Length=0.078669679 Rmatrix=0.55774 Xmatrix=0.098425 Cmatrix=0
New Line.10579976_10579978 Phases=1 bus1=10579976.3 bus2=10579978.3 Units=km Length=0.083309917 Rmatrix=0.55774 Xmatrix=0.098425 Cmatrix=0
New Line.10559399_10559400 Phases=1 bus1=10559399.1 bus2=10559400.1 Units=km Length=0.008045147 Rmatrix=0.53562 Xmatrix=0.54302 Cmatrix=0
New Line.10559399_10529606 Phases=1 bus1=10559399.1 bus2=10529606.1 Units=km Length=0.079719243 Rmatrix=0.53562 Xmatrix=0.54302 Cmatrix=0
New Line.10559400_10572328 Phases=1 bus1=10559400.1 bus2=10572328.1 Units=km Length=0.007832311 Rmatrix=0.53562 Xmatrix=0.54302 Cmatrix=0
New Line.10558510_10558511 Phases=3 bus1=10558510.1.2.3 bus2=10558511.1.2.3 Units=km Length=0.10389987 Rmatrix=[ 0.149604668106    0.0762826674006    0.0762826674003| 0.0762826674006     0.149604668106    0.0762826674003| 0.0762826674003    0.0762826674003     0.149604668106|] Xmatrix=[0.649266672916     0.278616669349     0.278616669348| 0.278616669349     0.649266672915     0.278616669349| 0.278616669348     0.278616669349     0.649266672913|] Cmatrix=[0                  0                  0| 0                  0                  0| 0                  0                  0|]
New Line.10558510_10558554 Phases=1 bus1=10558510.3 bus2=10558554.3 Units=km Length=0.011599635 Rmatrix=0.53562 Xmatrix=0.54302 Cmatrix=0
New Line.10558511_34096116 Phases=3 bus1=10558511.1.2.3 bus2=34096116.1.2.3 Units=km Length=0.004957584 Rmatrix=[ 0.149604666666    0.0762826666667    0.0762826666667| 0.0762826666667     0.149604666666    0.0762826666666| 0.0762826666667    0.0762826666666     0.149604666667|] Xmatrix=[0.649266666667     0.278616666666     0.278616666666| 0.278616666666     0.649266666666     0.278616666667| 0.278616666666     0.278616666667     0.649266666666|] Cmatrix=[0                  0                  0| 0                  0                  0| 0                  0                  0|]
New Line.10558511_10558556 Phases=1 bus1=10558511.3 bus2=10558556.3 Units=km Length=0.009609125 Rmatrix=0.53562 Xmatrix=0.54302 Cmatrix=0
New Line.10549243_10549241 Phases=1 bus1=10549243.2 bus2=10549241.2 Units=km Length=0.004816277 Rmatrix=0.53562 Xmatrix=0.54302 Cmatrix=0
New Line.20396846_10548927 Phases=3 bus1=20396846.1.2.3 bus2=10548927.1.2.3 Units=km Length=0.054258216 Rmatrix=[ 0.346583333333    0.0762833333333    0.0762833333336| 0.0762833333333     0.346583333333    0.0762833333332| 0.0762833333336    0.0762833333332     0.346583333334|] Xmatrix=[0.703880000001            0.27861            0.27861|        0.27861     0.703880000002            0.27861|        0.27861            0.27861            0.70388|] Cmatrix=[0                  0                  0| 0                  0                  0| 0                  0                  0|]
New Line.20396846_10548928_open Phases=3 bus1=20396846.1.2.3 bus2=10548928_open.1.2.3 Units=km Length=0.032198573 Rmatrix=[ 0.346583333333    0.0762833333333    0.0762833333333| 0.0762833333333     0.346583333333    0.0762833333333| 0.0762833333333    0.0762833333333     0.346583333333|] Xmatrix=[0.70388            0.27861            0.27861| 0.27861            0.70388            0.27861| 0.27861            0.27861            0.70388|] Cmatrix=[0                  0                  0| 0                  0                  0| 0                  0                  0|]
New Line.10548927_34095592 Phases=3 bus1=10548927.1.2.3 bus2=34095592.1.2.3 Units=km Length=0.003393123 Rmatrix=[ 0.346583333333    0.0762833333333    0.0762833333334| 0.0762833333333     0.346583333333    0.0762833333333| 0.0762833333334    0.0762833333333     0.346583333333|] Xmatrix=[0.70388            0.27861            0.27861| 0.27861            0.70388            0.27861| 0.27861            0.27861            0.70388|] Cmatrix=[0                  0                  0| 0                  0                  0| 0                  0                  0|]
New Line.10548906_34095590 Phases=3 bus1=10548906.1.2.3 bus2=34095590.1.2.3 Units=km Length=0.086998622 Rmatrix=[0.660123333333     0.112013333333     0.112013333333| 0.112013333333     0.660123333333     0.112013333333| 0.112013333333     0.112013333333     0.660123333333|] Xmatrix=[0.785106666667     0.315846666667     0.315846666667| 0.315846666667     0.785106666667     0.315846666667| 0.315846666667     0.315846666667     0.785106666667|] Cmatrix=[0                  0                  0| 0                  0                  0| 0                  0                  0|]
New Line.10548906_10548976 Phases=1 bus1=10548906.1 bus2=10548976.1 Units=km Length=0.007890558 Rmatrix=0.53562 Xmatrix=0.54302 Cmatrix=0
New Line.10559558_34086007 Phases=1 bus1=10559558.1 bus2=34086007.1 Units=km Length=0.055788026 Rmatrix=1.3546 Xmatrix=0.5314 Cmatrix=0
New Line.34054980_34054979 Phases=1 bus1=34054980.1 bus2=34054979.1 Units=km Length=0.12024924 Rmatrix=0.55773999 Xmatrix=0.098424998 Cmatrix=0
New Line.34054979_34054978 Phases=1 bus1=34054979.1 bus2=34054978.1 Units=km Length=0.13205435 Rmatrix=0.55773998 Xmatrix=0.098424997 Cmatrix=0
New Line.10549292_10579844 Phases=1 bus1=10549292.2 bus2=10579844.2 Units=km Length=0.007527768 Rmatrix=0.53562 Xmatrix=0.54302 Cmatrix=0
New Line.10549292_10549293 Phases=3 bus1=10549292.1.2.3 bus2=10549293.1.2.3 Units=km Length=0.045551353 Rmatrix=[ 0.346583333333     0.076283333333    0.0762833333331|  0.076283333333     0.346583333335    0.0762833333341| 0.0762833333331    0.0762833333341     0.346583333334|] Xmatrix=[0.703880000002            0.27861            0.27861|        0.27861     0.703879999999     0.278610000001|        0.27861     0.278610000001     0.703880000001|] Cmatrix=[0                  0                  0| 0                  0                  0| 0                  0                  0|]
New Line.10579844_34084956 Phases=1 bus1=10579844.2 bus2=34084956.2 Units=km Length=0.059974733 Rmatrix=0.53562 Xmatrix=0.54302 Cmatrix=0
New Line.10559267_10559392 Phases=1 bus1=10559267.1 bus2=10559392.1 Units=km Length=0.095485127 Rmatrix=1.3546 Xmatrix=0.5314 Cmatrix=0
New Line.10559267_10559385 Phases=1 bus1=10559267.1 bus2=10559385.1 Units=km Length=0.10331684 Rmatrix=0.53561998 Xmatrix=0.54301998 Cmatrix=0
New Line.10559267_10559396 Phases=1 bus1=10559267.1 bus2=10559396.1 Units=km Length=0.18406813 Rmatrix=0.53562001 Xmatrix=0.54302001 Cmatrix=0
New Line.10559392_34086309 Phases=1 bus1=10559392.1 bus2=34086309.1 Units=km Length=0.11406524 Rmatrix=1.3546 Xmatrix=0.53140001 Cmatrix=0
New Line.10549228_10549229 Phases=3 bus1=10549228.1.2.3 bus2=10549229.1.2.3 Units=km Length=0.090909992 Rmatrix=[ 0.149604666666    0.0762826666652    0.0762826666661| 0.0762826666652     0.149604666667    0.0762826666668| 0.0762826666661    0.0762826666668     0.149604666666|] Xmatrix=[0.649266666667     0.278616666667     0.278616666667| 0.278616666667     0.649266666666     0.278616666666| 0.278616666667     0.278616666666     0.649266666667|] Cmatrix=[0                  0                  0| 0                  0                  0| 0                  0                  0|]
New Line.10549228_10549244 Phases=1 bus1=10549228.2 bus2=10549244.2 Units=km Length=0.007460433 Rmatrix=1.3546 Xmatrix=0.5314 Cmatrix=0
New Line.34085402_10548920 Phases=3 bus1=34085402.1.2.3 bus2=10548920.1.2.3 Units=km Length=0.13021611 Rmatrix=[ 0.220443328255    0.0762833315759    0.0762833315759| 0.0762833315759     0.220443328255    0.0762833315759| 0.0762833315759    0.0762833315759     0.220443328255|] Xmatrix=[0.675746651098     0.278626660247     0.278626660248| 0.278626660247     0.675746651098     0.278626660247| 0.278626660248     0.278626660247     0.675746651098|] Cmatrix=[0                  0                  0| 0                  0                  0| 0                  0                  0|]
New Line.10548920_10548921 Phases=3 bus1=10548920.1.2.3 bus2=10548921.1.2.3 Units=km Length=0.044343441 Rmatrix=[ 0.220443333333    0.0762833333333    0.0762833333334| 0.0762833333333     0.220443333333    0.0762833333333| 0.0762833333334    0.0762833333333     0.220443333333|] Xmatrix=[0.675746666667     0.278626666667     0.278626666666| 0.278626666667     0.675746666666     0.278626666667| 0.278626666666     0.278626666667     0.675746666667|] Cmatrix=[0                  0                  0| 0                  0                  0| 0                  0                  0|]
New Line.34086319_34095281 Phases=1 bus1=34086319.1 bus2=34095281.1 Units=km Length=0.089864 Rmatrix=0.53562 Xmatrix=0.54302 Cmatrix=0
New Line.34086319_10559398 Phases=1 bus1=34086319.1 bus2=10559398.1 Units=km Length=0.13159241 Rmatrix=0.53562 Xmatrix=0.54302 Cmatrix=0
New Line.34095281_10559407 Phases=1 bus1=34095281.1 bus2=10559407.1 Units=km Length=0.10088498 Rmatrix=0.53561998 Xmatrix=0.54301998 Cmatrix=0
New Line.10545431_34085492 Phases=3 bus1=10545431.1.2.3 bus2=34085492.1.2.3 Units=km Length=0.048765785 Rmatrix=[ 0.346583333333    0.0762833333334    0.0762833333335| 0.0762833333334     0.346583333333    0.0762833333335| 0.0762833333335    0.0762833333335     0.346583333334|] Xmatrix=[0.70388            0.27861            0.27861| 0.27861            0.70388            0.27861| 0.27861            0.27861     0.703879999999|] Cmatrix=[0                  0                  0| 0                  0                  0| 0                  0                  0|]
New Line.34085492_34085493 Phases=3 bus1=34085492.1.2.3 bus2=34085493.1.2.3 Units=km Length=0.068842405 Rmatrix=[ 0.346583333333    0.0762833333333    0.0762833333333| 0.0762833333333     0.346583333333    0.0762833333333| 0.0762833333333    0.0762833333333     0.346583333334|] Xmatrix=[0.70388            0.27861            0.27861| 0.27861            0.70388            0.27861| 0.27861            0.27861     0.703879999999|] Cmatrix=[0                  0                  0| 0                  0                  0| 0                  0                  0|]
New Line.34085492_10579827 Phases=1 bus1=34085492.3 bus2=10579827.3 Units=km Length=0.007468951 Rmatrix=0.53562 Xmatrix=0.54302 Cmatrix=0
New Line.20344331_34054973 Phases=1 bus1=20344331.3 bus2=34054973.3 Units=km Length=0.15328189 Rmatrix=0.55773998 Xmatrix=0.098424997 Cmatrix=0
New Line.34084956_10579833 Phases=1 bus1=34084956.2 bus2=10579833.2 Units=km Length=0.051258293 Rmatrix=0.53562 Xmatrix=0.54302 Cmatrix=0
New Line.10558473_10558476 Phases=3 bus1=10558473.1.2.3 bus2=10558476.1.2.3 Units=km Length=0.031347137 Rmatrix=[0.640633333333     0.105013333333     0.105013333333| 0.105013333333     0.640633333333     0.105013333333| 0.105013333333     0.105013333333     0.640633333333|] Xmatrix=[0.839726666667     0.319636666667     0.319636666667| 0.319636666667     0.839726666667     0.319636666667| 0.319636666667     0.319636666667     0.839726666666|] Cmatrix=[0                  0                  0| 0                  0                  0| 0                  0                  0|]
New Line.10558473_10540312 Phases=3 bus1=10558473.1.2.3 bus2=10540312.1.2.3 Units=km Length=0.033627114 Rmatrix=[1.4841             0.1326             0.1326| 0.1326             1.4841             0.1326| 0.1326             0.1326             1.4841|] Xmatrix=[0.918666666667     0.395716666667     0.395716666667| 0.395716666667     0.918666666667     0.395716666667| 0.395716666667     0.395716666667     0.918666666667|] Cmatrix=[0                  0                  0| 0                  0                  0| 0                  0                  0|]
New Line.34085488_10549222 Phases=3 bus1=34085488.1.2.3 bus2=10549222.1.2.3 Units=km Length=0.043688662 Rmatrix=[ 0.149604666667    0.0762826666666    0.0762826666667| 0.0762826666666     0.149604666667    0.0762826666667| 0.0762826666667    0.0762826666667     0.149604666667|] Xmatrix=[0.649266666667     0.278616666667     0.278616666667| 0.278616666667     0.649266666667     0.278616666667| 0.278616666667     0.278616666667     0.649266666666|] Cmatrix=[0                  0                  0| 0                  0                  0| 0                  0                  0|]
New Line.34085488_10549262 Phases=1 bus1=34085488.1 bus2=10549262.1 Units=km Length=0.009337622 Rmatrix=0.53562 Xmatrix=0.54302 Cmatrix=0
New Line.34090004_10548914 Phases=3 bus1=34090004.1.2.3 bus2=10548914.1.2.3 Units=km Length=0.071029625 Rmatrix=[ 0.220443333333    0.0762833333334    0.0762833333334| 0.0762833333334     0.220443333333    0.0762833333334| 0.0762833333334    0.0762833333334     0.220443333333|] Xmatrix=[0.675746666667     0.278626666666     0.278626666667| 0.278626666666     0.675746666667     0.278626666667| 0.278626666667     0.278626666667     0.675746666666|] Cmatrix=[0                  0                  0| 0                  0                  0| 0                  0                  0|]
New Line.10548914_10548965 Phases=3 bus1=10548914.1.2.3 bus2=10548965.1.2.3 Units=km Length=0.032168191 Rmatrix=[0.640633333333     0.105013333333     0.105013333333| 0.105013333333     0.640633333334     0.105013333333| 0.105013333333     0.105013333333     0.640633333333|] Xmatrix=[0.839726666666     0.319636666667     0.319636666666| 0.319636666667     0.839726666667     0.319636666667| 0.319636666666     0.319636666667     0.839726666666|] Cmatrix=[0                  0                  0| 0                  0                  0| 0                  0                  0|]
New Line.10548914_10548915 Phases=3 bus1=10548914.1.2.3 bus2=10548915.1.2.3 Units=km Length=0.13684262 Rmatrix=[ 0.220443333333    0.0762833333332    0.0762833333334| 0.0762833333332     0.220443333333    0.0762833333335| 0.0762833333334    0.0762833333335     0.220443333333|] Xmatrix=[0.675746666667     0.278626666667     0.278626666667| 0.278626666667     0.675746666667     0.278626666667| 0.278626666667     0.278626666667     0.675746666667|] Cmatrix=[0                  0                  0| 0                  0                  0| 0                  0                  0|]
New Line.10549018_34091315 Phases=1 bus1=10549018.3 bus2=34091315.3 Units=km Length=0.003797951 Rmatrix=0.53562 Xmatrix=0.54302 Cmatrix=0
New Line.10548931_34085479 Phases=3 bus1=10548931.1.2.3 bus2=34085479.1.2.3 Units=km Length=0.025726559 Rmatrix=[ 0.346583333334    0.0762833333333    0.0762833333334| 0.0762833333333     0.346583333333    0.0762833333333| 0.0762833333334    0.0762833333333     0.346583333333|] Xmatrix=[0.70388            0.27861            0.27861| 0.27861            0.70388            0.27861| 0.27861            0.27861            0.70388|] Cmatrix=[0                  0                  0| 0                  0                  0| 0                  0                  0|]
New Line.34085479_10548932 Phases=3 bus1=34085479.1.2.3 bus2=10548932.1.2.3 Units=km Length=0.007382454 Rmatrix=[ 0.346583333333    0.0762833333333    0.0762833333334| 0.0762833333333     0.346583333333    0.0762833333333| 0.0762833333334    0.0762833333333     0.346583333333|] Xmatrix=[0.70388            0.27861            0.27861| 0.27861            0.70388            0.27861| 0.27861            0.27861            0.70388|] Cmatrix=[0                  0                  0| 0                  0                  0| 0                  0                  0|]
New Line.34054968_34054967 Phases=1 bus1=34054968.3 bus2=34054967.3 Units=km Length=0.061757001 Rmatrix=0.55774 Xmatrix=0.098425 Cmatrix=0
New Line.10559040_34086402 Phases=1 bus1=10559040.1 bus2=34086402.1 Units=km Length=0.004089934 Rmatrix=1.3546 Xmatrix=0.5314 Cmatrix=0
New Line.10559040_10559390 Phases=1 bus1=10559040.1 bus2=10559390.1 Units=km Length=0.10662598 Rmatrix=0.53561999 Xmatrix=0.54301999 Cmatrix=0
New Line.10572565_10557802 Phases=3 bus1=10572565.1.2.3 bus2=10557802.1.2.3 Units=km Length=0.083523969 Rmatrix=[ 0.149604666667    0.0762826666667    0.0762826666667| 0.0762826666667     0.149604666667    0.0762826666666| 0.0762826666667    0.0762826666666     0.149604666667|] Xmatrix=[0.649266666667     0.278616666667     0.278616666667| 0.278616666667     0.649266666667     0.278616666667| 0.278616666667     0.278616666667     0.649266666666|] Cmatrix=[0                  0                  0| 0                  0                  0| 0                  0                  0|]
New Line.10572565_10548993 Phases=1 bus1=10572565.3 bus2=10548993.3 Units=km Length=0.010720779 Rmatrix=0.53562 Xmatrix=0.54302 Cmatrix=0
[...]
New Load.Load_LD_10549013.2_model_4 Phases=1 bus1=LD_10549013.2 Kv=0.24 Kw=7.9437 Model=4 Kvar=1.9909
New Load.Load_LD_20456673.3_model_4 Phases=1 bus1=LD_20456673.3 Kv=0.24 Kw=12.2906 Model=4 Kvar=3.0803
New Load.Load_LD_10579196.1_model_4 Phases=1 bus1=LD_10579196.1 Kv=0.24 Kw=1.6692 Model=4 Kvar=0.41834
New Load.Load_LD_10558579.3_model_4 Phases=1 bus1=LD_10558579.3 Kv=0.24 Kw=6.3575 Model=4 Kvar=1.5933
New Load.Load_LD_10548992.2_model_4 Phases=1 bus1=LD_10548992.2 Kv=0.24 Kw=18.2932 Model=4 Kvar=4.5847
New Load.Load_LD_10545431.1_model_4 Phases=1 bus1=LD_10545431.1 Kv=0.24 Kw=9.506 Model=4 Kvar=2.3824
New Load.Load_LD_34086805.3_model_4 Phases=1 bus1=LD_34086805.3 Kv=0.24 Kw=4.4813 Model=4 Kvar=1.1231
New Load.Load_LD_34085312.1_model_4 Phases=1 bus1=LD_34085312.1 Kv=0.24 Kw=15.4484 Model=4 Kvar=3.8717
New Load.Load_LD_20409718.3_model_4 Phases=1 bus1=LD_20409718.3 Kv=0.24 Kw=0.84669 Model=4 Kvar=0.2122
New Load.Load_LD_10549310.2_model_4 Phases=1 bus1=LD_10549310.2 Kv=0.24 Kw=11.8011 Model=4 Kvar=2.9576
New Load.Load_LD_34086797.2_model_4 Phases=1 bus1=LD_34086797.2 Kv=0.24 Kw=6.9086 Model=4 Kvar=1.7314
New Load.Load_LD_10573495.3_model_4 Phases=1 bus1=LD_10573495.3 Kv=0.24 Kw=10.5179 Model=4 Kvar=2.636
New Load.Load_LD_10549293.1_model_4 Phases=1 bus1=LD_10549293.1 Kv=0.24 Kw=7.1195 Model=4 Kvar=1.7843
New Load.Load_LD_10548977.1_model_4 Phases=1 bus1=LD_10548977.1 Kv=0.24 Kw=4.5804 Model=4 Kvar=1.1479
New Load.Load_LD_34085044.2_model_4 Phases=1 bus1=LD_34085044.2 Kv=0.24 Kw=3.3801 Model=4 Kvar=0.84713
New Load.Load_LD_10571603.1_model_4 Phases=1 bus1=LD_10571603.1 Kv=0.24 Kw=16.721 Model=4 Kvar=4.1907
New Load.Load_LD_10549287.2_model_4 Phases=1 bus1=LD_10549287.2 Kv=0.24 Kw=9.0928 Model=4 Kvar=2.2789
New Load.Load_LD_10548962.2_model_4 Phases=1 bus1=LD_10548962.2 Kv=0.24 Kw=25.1128 Model=4 Kvar=6.2939
New Load.Load_LD_10529606.1_model_4 Phases=1 bus1=LD_10529606.1 Kv=0.24 Kw=8.8093 Model=4 Kvar=2.2078
New Load.Load_LD_34097394.1_model_4 Phases=1 bus1=LD_34097394.1 Kv=0.24 Kw=23.632 Model=4 Kvar=5.9227
New Load.Load_LD_34086384.3_model_4 Phases=1 bus1=LD_34086384.3 Kv=0.24 Kw=3.7023 Model=4 Kvar=0.92789
New Load.Load_LD_10560401.2_model_4 Phases=1 bus1=LD_10560401.2 Kv=0.24 Kw=8.5887 Model=4 Kvar=2.1525
New Load.Load_LD_10558553.1_model_4 Phases=1 bus1=LD_10558553.1 Kv=0.24 Kw=11.315 Model=4 Kvar=2.8358
New Load.Load_LD_10549278.1_model_4 Phases=1 bus1=LD_10549278.1 Kv=0.24 Kw=4.5647 Model=4 Kvar=1.144
New Load.Load_LD_10548954.3_model_4 Phases=1 bus1=LD_10548954.3 Kv=0.24 Kw=1.8587 Model=4 Kvar=0.46582
New Load.Load_LD_34084956.2_model_4 Phases=1 bus1=LD_34084956.2 Kv=0.24 Kw=6.5956 Model=4 Kvar=1.653
New Load.Load_LD_10559783.2_model_4 Phases=1 bus1=LD_10559783.2 Kv=0.24 Kw=7.6318 Model=4 Kvar=1.9127
New Load.Load_LD_10558547.3_model_4 Phases=1 bus1=LD_10558547.3 Kv=0.24 Kw=21.3838 Model=4 Kvar=5.3593
New Load.Load_LD_10522508.2_model_4 Phases=1 bus1=LD_10522508.2 Kv=0.24 Kw=6.4374 Model=4 Kvar=1.6134
New Load.Load_LD_34095667.3_model_4 Phases=1 bus1=LD_34095667.3 Kv=0.24 Kw=8.455 Model=4 Kvar=2.119
New Load.Load_LD_34084666.2_model_4 Phases=1 bus1=LD_34084666.2 Kv=0.24 Kw=6.45 Model=4 Kvar=1.6165
New Load.Load_LD_10559589.3_model_4 Phases=1 bus1=LD_10559589.3 Kv=0.24 Kw=11.343 Model=4 Kvar=2.8428
New Load.Load_LD_10549259.3_model_4 Phases=1 bus1=LD_10549259.3 Kv=0.24 Kw=8.8745 Model=4 Kvar=2.2242
New Load.Load_LD_34084616.1_model_4 Phases=1 bus1=LD_34084616.1 Kv=0.24 Kw=13.0688 Model=4 Kvar=3.2754
New Load.Load_LD_10559558.1_model_4 Phases=1 bus1=LD_10559558.1 Kv=0.24 Kw=36.8154 Model=4 Kvar=9.2268
New Load.Load_LD_10549250.1_model_4 Phases=1 bus1=LD_10549250.1 Kv=0.24 Kw=11.8406 Model=4 Kvar=2.9675
New Load.Load_LD_34095651.1_model_4 Phases=1 bus1=LD_34095651.1 Kv=0.24 Kw=0.33202 Model=4 Kvar=0.14144
New Load.Load_LD_10559451.1_model_4 Phases=1 bus1=LD_10559451.1 Kv=0.24 Kw=6.284 Model=4 Kvar=1.5749
New Load.Load_LD_34054992.1_model_4 Phases=1 bus1=LD_34054992.1 Kv=0.24 Kw=14.9227 Model=4 Kvar=3.74
New Load.Load_LD_10579847.2_model_4 Phases=1 bus1=LD_10579847.2 Kv=0.24 Kw=6.6185 Model=4 Kvar=1.6587
New Load.Load_LD_10559394.1_model_4 Phases=1 bus1=LD_10559394.1 Kv=0.24 Kw=13.3747 Model=4 Kvar=3.352
New Load.Load_LD_34095580.2_model_4 Phases=1 bus1=LD_34095580.2 Kv=0.24 Kw=14.2172 Model=4 Kvar=3.5632
New Load.Load_LD_34085951.3_model_4 Phases=1 bus1=LD_34085951.3 Kv=0.24 Kw=9.8808 Model=4 Kvar=2.4764
New Load.Load_LD_34054975.2_model_4 Phases=1 bus1=LD_34054975.2 Kv=0.24 Kw=1.0347 Model=4 Kvar=0.25932
New Load.Load_LD_10579840.3_model_4 Phases=1 bus1=LD_10579840.3 Kv=0.24 Kw=10.1778 Model=4 Kvar=2.5508
New Load.Load_LD_10559387.1_model_4 Phases=1 bus1=LD_10559387.1 Kv=0.24 Kw=6.2041 Model=4 Kvar=1.5549
New Load.Load_LD_34092154.1_model_4 Phases=1 bus1=LD_34092154.1 Kv=0.24 Kw=9.1063 Model=4 Kvar=2.2823
New Load.Load_LD_10559090.1_model_4 Phases=1 bus1=LD_10559090.1 Kv=0.24 Kw=14.7261 Model=4 Kvar=3.6907
New Load.Load_LD_10548910.2_model_4 Phases=1 bus1=LD_10548910.2 Kv=0.24 Kw=14.6202 Model=4 Kvar=3.6642
New Load.Load_LD_34085442.1_model_4 Phases=1 bus1=LD_34085442.1 Kv=0.24 Kw=14.6643 Model=4 Kvar=3.6752
New Load.Load_LD_10579829.3_model_4 Phases=1 bus1=LD_10579829.3 Kv=0.24 Kw=8.595 Model=4 Kvar=2.1541
New Load.Load_LD_10558586.1_model_4 Phases=1 bus1=LD_10558586.1 Kv=0.24 Kw=17.0041 Model=4 Kvar=4.2616
New Load.Load_LD_10549015.2_model_4 Phases=1 bus1=LD_10549015.2 Kv=0.24 Kw=6.3614 Model=4 Kvar=1.5943
New Load.Load_LD_34085352.2_model_4 Phases=1 bus1=LD_34085352.2 Kv=0.24 Kw=5.7062 Model=4 Kvar=1.4301
New Load.Load_LD_20456674.3_model_4 Phases=1 bus1=LD_20456674.3 Kv=0.24 Kw=8.5068 Model=4 Kvar=2.132
New Load.Load_LD_10579231.1_model_4 Phases=1 bus1=LD_10579231.1 Kv=0.24 Kw=8.2717 Model=4 Kvar=2.0731
New Load.Load_LD_10558580.3_model_4 Phases=1 bus1=LD_10558580.3 Kv=0.24 Kw=3.6704 Model=4 Kvar=0.91989
New Load.Load_LD_10552942.1_model_4 Phases=1 bus1=LD_10552942.1 Kv=0.24 Kw=2.7376 Model=4 Kvar=0.6861
New Load.Load_LD_10545502.1_model_4 Phases=1 bus1=LD_10545502.1 Kv=0.24 Kw=28.3819 Model=4 Kvar=7.1132
New Load.Load_LD_34086806.3_model_4 Phases=1 bus1=LD_34086806.3 Kv=0.24 Kw=1.4408 Model=4 Kvar=0.36111
New Load.Load_LD_10558573.3_model_4 Phases=1 bus1=LD_10558573.3 Kv=0.24 Kw=23.7682 Model=4 Kvar=5.9569
New Load.Load_LD_10548985.1_model_4 Phases=1 bus1=LD_10548985.1 Kv=0.24 Kw=11.6534 Model=4 Kvar=2.9206
New Load.Load_LD_40156536.1_model_4 Phases=1 bus1=LD_40156536.1 Kv=0.24 Kw=1.0347 Model=4 Kvar=0.25932
New Load.Load_LD_34085262.2_model_4 Phases=1 bus1=LD_34085262.2 Kv=0.24 Kw=9.4747 Model=4 Kvar=2.3746
New Load.Load_LD_10549294.3_model_4 Phases=1 bus1=LD_10549294.3 Kv=0.24 Kw=30.048 Model=4 Kvar=7.5307
New Load.Load_LD_10548979.1_model_4 Phases=1 bus1=LD_10548979.1 Kv=0.24 Kw=6.0683 Model=4 Kvar=2.5851
New Load.Load_LD_34086410.2_model_4 Phases=1 bus1=LD_34086410.2 Kv=0.24 Kw=2.6892 Model=4 Kvar=0.67399
New Load.Load_LD_10529607.1_model_4 Phases=1 bus1=LD_10529607.1 Kv=0.24 Kw=5.2623 Model=4 Kvar=1.3189
New Load.Load_LD_34097395.1_model_4 Phases=1 bus1=LD_34097395.1 Kv=0.24 Kw=12.1142 Model=4 Kvar=3.0361
New Load.Load_LD_34086400.3_model_4 Phases=1 bus1=LD_34086400.3 Kv=0.24 Kw=14.1199 Model=4 Kvar=3.5388
New Load.Load_LD_10560402.2_model_4 Phases=1 bus1=LD_10560402.2 Kv=0.24 Kw=13.3264 Model=4 Kvar=3.3399
New Load.Load_LD_34096668.1_model_4 Phases=1 bus1=LD_34096668.1 Kv=0.24 Kw=4.0918 Model=4 Kvar=1.0255
New Load.Load_LD_34084957.1_model_4 Phases=1 bus1=LD_34084957.1 Kv=0.24 Kw=1.2264 Model=4 Kvar=0.30736
New Load.Load_LD_10559784.2_model_4 Phases=1 bus1=LD_10559784.2 Kv=0.24 Kw=19.8076 Model=4 Kvar=4.9643
New Load.Load_LD_10549266.2_model_4 Phases=1 bus1=LD_10549266.2 Kv=0.24 Kw=5.1621 Model=4 Kvar=1.2937
New Load.Load_LD_34086309.1_model_4 Phases=1 bus1=LD_34086309.1 Kv=0.24 Kw=9.5678 Model=4 Kvar=2.3979
New Load.Load_LD_34086303.3_model_4 Phases=1 bus1=LD_34086303.3 Kv=0.24 Kw=6.7378 Model=4 Kvar=1.6887
New Load.Load_LD_34084661.2_model_4 Phases=1 bus1=LD_34084661.2 Kv=0.24 Kw=15.9621 Model=4 Kvar=4.0005
New Load.Load_LD_34095654.2_model_4 Phases=1 bus1=LD_34095654.2 Kv=0.24 Kw=15.4371 Model=4 Kvar=3.8689
New Load.Load_LD_34086019.1_model_4 Phases=1 bus1=LD_34086019.1 Kv=0.24 Kw=2.056 Model=4 Kvar=0.51527
New Load.Load_LD_34084591.2_model_4 Phases=1 bus1=LD_34084591.2 Kv=0.24 Kw=12.4754 Model=4 Kvar=5.3145
New Load.Load_LD_10559487.1_model_4 Phases=1 bus1=LD_10559487.1 Kv=0.24 Kw=18.2828 Model=4 Kvar=4.5821
New Load.Load_LD_10549245.2_model_4 Phases=1 bus1=LD_10549245.2 Kv=0.24 Kw=7.2231 Model=4 Kvar=1.8103
New Load.Load_LD_34095643.1_model_4 Phases=1 bus1=LD_34095643.1 Kv=0.24 Kw=5.8071 Model=4 Kvar=1.4554
New Load.Load_LD_34055522.1_model_4 Phases=1 bus1=LD_34055522.1 Kv=0.24 Kw=18.6677 Model=4 Kvar=4.6786
New Load.Load_LD_10559396.1_model_4 Phases=1 bus1=LD_10559396.1 Kv=0.24 Kw=10.4428 Model=4 Kvar=2.6172
New Load.Load_LD_34095581.2_model_4 Phases=1 bus1=LD_34095581.2 Kv=0.24 Kw=6.3495 Model=4 Kvar=1.5913
New Load.Load_LD_34085952.3_model_4 Phases=1 bus1=LD_34085952.3 Kv=0.24 Kw=11.0181 Model=4 Kvar=2.7614
New Load.Load_LD_34054976.1_model_4 Phases=1 bus1=LD_34054976.1 Kv=0.24 Kw=25.0168 Model=4 Kvar=6.2698
New Load.Load_LD_10559389.1_model_4 Phases=1 bus1=LD_10559389.1 Kv=0.24 Kw=5.2857 Model=4 Kvar=1.3247
New Load.Load_LD_10558481.1_model_4 Phases=1 bus1=LD_10558481.1 Kv=0.24 Kw=2.4157 Model=4 Kvar=0.60542
New Load.Load_LD_34092234.3_model_4 Phases=1 bus1=LD_34092234.3 Kv=0.24 Kw=5.0255 Model=4 Kvar=1.2595
New Load.Load_LD_34085489.3_model_4 Phases=1 bus1=LD_34085489.3 Kv=0.24 Kw=5.2874 Model=4 Kvar=1.3251
New Load.Load_LD_10579830.3_model_4 Phases=1 bus1=LD_10579830.3 Kv=0.24 Kw=2.7008 Model=4 Kvar=0.67689
New Load.Load_LD_10558471.3_model_4 Phases=1 bus1=LD_10558471.3 Kv=0.24 Kw=8.9649 Model=4 Kvar=2.2468
New Load.Load_LD_10548911.1_model_4 Phases=1 bus1=LD_10548911.1 Kv=0.24 Kw=18.0881 Model=4 Kvar=4.5333
New Load.Load_LD_34090086.3_model_4 Phases=1 bus1=LD_34090086.3 Kv=0.24 Kw=17.3525 Model=4 Kvar=4.3489
New Load.Load_LD_34090003.3_model_4 Phases=1 bus1=LD_34090003.3 Kv=0.24 Kw=12.1829 Model=4 Kvar=3.0533
New Load.Load_LD_20494025.3_model_4 Phases=1 bus1=LD_20494025.3 Kv=0.24 Kw=5.2083 Model=4 Kvar=1.3053
New Load.Load_LD_10579234.1_model_4 Phases=1 bus1=LD_10579234.1 Kv=0.24 Kw=8.7988 Model=4 Kvar=2.2052
New Load.Load_LD_10558581.3_model_4 Phases=1 bus1=LD_10558581.3 Kv=0.24 Kw=6.7315 Model=4 Kvar=1.6871
New Load.Load_LD_10548994.3_model_4 Phases=1 bus1=LD_10548994.3 Kv=0.24 Kw=6.0193 Model=4 Kvar=1.5086
New Load.Load_LD_10545682.1_model_4 Phases=1 bus1=LD_10545682.1 Kv=0.24 Kw=1.6251 Model=4 Kvar=0.4073
New Load.Load_LD_34085321.1_model_4 Phases=1 bus1=LD_34085321.1 Kv=0.24 Kw=3.8461 Model=4 Kvar=0.96392
New Load.Load_LD_10558575.3_model_4 Phases=1 bus1=LD_10558575.3 Kv=0.24 Kw=4.1869 Model=4 Kvar=1.0493
New Load.Load_LD_10549312.2_model_4 Phases=1 bus1=LD_10549312.2 Kv=0.24 Kw=14.5124 Model=4 Kvar=3.6372
New Load.Load_LD_10548986.1_model_4 Phases=1 bus1=LD_10548986.1 Kv=0.24 Kw=1.9604 Model=4 Kvar=0.49131
New Load.Load_LD_10542412.1_model_4 Phases=1 bus1=LD_10542412.1 Kv=0.24 Kw=6.3707 Model=4 Kvar=1.5966
New Load.Load_LD_34085263.2_model_4 Phases=1 bus1=LD_34085263.2 Kv=0.24 Kw=8.595 Model=4 Kvar=2.1541
New Load.Load_LD_34085046.2_model_4 Phases=1 bus1=LD_34085046.2 Kv=0.24 Kw=10.3998 Model=4 Kvar=2.6064
New Load.Load_LD_10558562.3_model_4 Phases=1 bus1=LD_10558562.3 Kv=0.24 Kw=8.7841 Model=4 Kvar=2.2015
New Load.Load_LD_10549289.3_model_4 Phases=1 bus1=LD_10549289.3 Kv=0.24 Kw=6.8307 Model=4 Kvar=1.7119
New Load.Load_LD_10529608.1_model_4 Phases=1 bus1=LD_10529608.1 Kv=0.24 Kw=0.62081 Model=4 Kvar=0.15559
New Load.Load_LD_34097396.3_model_4 Phases=1 bus1=LD_34097396.3 Kv=0.24 Kw=13.7772 Model=4 Kvar=3.4529
New Load.Load_LD_34086401.3_model_4 Phases=1 bus1=LD_34086401.3 Kv=0.24 Kw=9.7947 Model=4 Kvar=2.4548
New Load.Load_LD_34085040.1_model_4 Phases=1 bus1=LD_34085040.1 Kv=0.24 Kw=6.0621 Model=4 Kvar=1.5193
New Load.Load_LD_20344331.3_model_4 Phases=1 bus1=LD_20344331.3 Kv=0.24 Kw=4.6922 Model=4 Kvar=1.176
New Load.Load_LD_10548956.3_model_4 Phases=1 bus1=LD_10548956.3 Kv=0.24 Kw=7.366 Model=4 Kvar=1.8461
New Load.Load_LD_10525295.3_model_4 Phases=1 bus1=LD_10525295.3 Kv=0.24 Kw=7.5635 Model=4 Kvar=1.8956
New Load.Load_LD_34086324.3_model_4 Phases=1 bus1=LD_34086324.3 Kv=0.24 Kw=14.8974 Model=4 Kvar=3.7336
New Load.Load_LD_20122385.3_model_4 Phases=1 bus1=LD_20122385.3 Kv=0.24 Kw=3.7144 Model=4 Kvar=0.93092
New Load.Load_LD_10549269.3_model_4 Phases=1 bus1=LD_10549269.3 Kv=0.24 Kw=5.3854 Model=4 Kvar=1.3497
New Load.Load_LD_10548950.2_model_4 Phases=1 bus1=LD_10548950.2 Kv=0.24 Kw=7.2777 Model=4 Kvar=1.824
New Load.Load_LD_10523032.3_model_4 Phases=1 bus1=LD_10523032.3 Kv=0.24 Kw=6.8744 Model=4 Kvar=1.7229
New Load.Load_LD_34086310.1_model_4 Phases=1 bus1=LD_34086310.1 Kv=0.24 Kw=8.3513 Model=4 Kvar=2.093
New Load.Load_LD_34084952.1_model_4 Phases=1 bus1=LD_34084952.1 Kv=0.24 Kw=13.7484 Model=4 Kvar=3.4457
New Load.Load_LD_20028685.2_model_4 Phases=1 bus1=LD_20028685.2 Kv=0.24 Kw=22.8606 Model=4 Kvar=5.7294
New Load.Load_LD_10559591.2_model_4 Phases=1 bus1=LD_10559591.2 Kv=0.24 Kw=13.7907 Model=4 Kvar=3.4563
New Load.Load_LD_10549261.3_model_4 Phases=1 bus1=LD_10549261.3 Kv=0.24 Kw=6.781 Model=4 Kvar=1.6995
New Load.Load_LD_10558523.2_model_4 Phases=1 bus1=LD_10558523.2 Kv=0.24 Kw=0.34497 Model=4 Kvar=0.086458
New Load.Load_LD_10548938.3_model_4 Phases=1 bus1=LD_10548938.3 Kv=0.24 Kw=19.3178 Model=4 Kvar=4.8415
New Load.Load_LD_34095655.3_model_4 Phases=1 bus1=LD_34095655.3 Kv=0.24 Kw=6.8279 Model=4 Kvar=1.7112
New Load.Load_LD_10548931.1_model_4 Phases=1 bus1=LD_10548931.1 Kv=0.24 Kw=11.9125 Model=4 Kvar=2.9855
New Load.Load_LD_34057718.1_model_4 Phases=1 bus1=LD_34057718.1 Kv=0.24 Kw=4.5828 Model=4 Kvar=1.1486
New Load.Load_LD_10559398.1_model_4 Phases=1 bus1=LD_10559398.1 Kv=0.24 Kw=7.8679 Model=4 Kvar=1.9719
New Load.Load_LD_10558509.2_model_4 Phases=1 bus1=LD_10558509.2 Kv=0.24 Kw=5.4352 Model=4 Kvar=1.3622
New Load.Load_LD_10549239.2_model_4 Phases=1 bus1=LD_10549239.2 Kv=0.24 Kw=9.8344 Model=4 Kvar=2.4647
New Load.Load_LD_34095588.1_model_4 Phases=1 bus1=LD_34095588.1 Kv=0.24 Kw=14.3649 Model=4 Kvar=3.6002
New Load.Load_LD_34085953.3_model_4 Phases=1 bus1=LD_34085953.3 Kv=0.24 Kw=14.3403 Model=4 Kvar=3.594
New Load.Load_LD_10559390.1_model_4 Phases=1 bus1=LD_10559390.1 Kv=0.24 Kw=10.2464 Model=4 Kvar=2.568
New Load.Load_LD_10549226.3_model_4 Phases=1 bus1=LD_10549226.3 Kv=0.24 Kw=9.4716 Model=4 Kvar=2.3738
New Load.Load_LD_34085490.3_model_4 Phases=1 bus1=LD_34085490.3 Kv=0.24 Kw=22.9536 Model=4 Kvar=5.7527
New Load.Load_LD_34054971.3_model_4 Phases=1 bus1=LD_34054971.3 Kv=0.24 Kw=13.1286 Model=4 Kvar=3.2903
New Load.Load_LD_10579831.2_model_4 Phases=1 bus1=LD_10579831.2 Kv=0.24 Kw=14.9606 Model=4 Kvar=3.7495
New Load.Load_LD_34090753.1_model_4 Phases=1 bus1=LD_34090753.1 Kv=0.24 Kw=3.3724 Model=4 Kvar=0.8452
New Load.Load_LD_34085462.2_model_4 Phases=1 bus1=LD_34085462.2 Kv=0.24 Kw=12.1473 Model=4 Kvar=3.0444
New Load.Load_LD_34054965.2_model_4 Phases=1 bus1=LD_34054965.2 Kv=0.24 Kw=6.9647 Model=4 Kvar=1.7455
New Load.Load_LD_10558646.2_model_4 Phases=1 bus1=LD_10558646.2 Kv=0.24 Kw=11.7507 Model=4 Kvar=2.945
New Load.Load_LD_10556739.1_model_4 Phases=1 bus1=LD_10556739.1 Kv=0.24 Kw=8.9695 Model=4 Kvar=2.248
New Load.Load_LD_10549018.3_model_4 Phases=1 bus1=LD_10549018.3 Kv=0.24 Kw=7.5299 Model=4 Kvar=1.8872
New Load.Load_LD_34085371.2_model_4 Phases=1 bus1=LD_34085371.2 Kv=0.24 Kw=15.332 Model=4 Kvar=3.8426
New Load.Load_LD_20494026.3_model_4 Phases=1 bus1=LD_20494026.3 Kv=0.24 Kw=6.721 Model=4 Kvar=1.6844
New Load.Load_LD_10579373.1_model_4 Phases=1 bus1=LD_10579373.1 Kv=0.24 Kw=4.8313 Model=4 Kvar=1.2109
New Load.Load_LD_10558582.3_model_4 Phases=1 bus1=LD_10558582.3 Kv=0.24 Kw=9.9195 Model=4 Kvar=2.4861
New Load.Load_LD_34087254.3_model_4 Phases=1 bus1=LD_34087254.3 Kv=0.24 Kw=11.3066 Model=4 Kvar=2.8337
New Load.Load_LD_34085340.3_model_4 Phases=1 bus1=LD_34085340.3 Kv=0.24 Kw=13.5871 Model=4 Kvar=3.4053
New Load.Load_LD_20416460.1_model_4 Phases=1 bus1=LD_20416460.1 Kv=0.24 Kw=1.4707 Model=4 Kvar=0.36859
New Load.Load_LD_10558576.3_model_4 Phases=1 bus1=LD_10558576.3 Kv=0.24 Kw=0.12579 Model=4 Kvar=0.031525
New Load.Load_LD_10549313.2_model_4 Phases=1 bus1=LD_10549313.2 Kv=0.24 Kw=3.7139 Model=4 Kvar=0.9308
New Load.Load_LD_34086800.3_model_4 Phases=1 bus1=LD_34086800.3 Kv=0.24 Kw=6.8317 Model=4 Kvar=1.7122
New Load.Load_LD_34085264.2_model_4 Phases=1 bus1=LD_34085264.2 Kv=0.24 Kw=6.2006 Model=4 Kvar=1.554
New Load.Load_LD_10548981.1_model_4 Phases=1 bus1=LD_10548981.1 Kv=0.24 Kw=13.6279 Model=4 Kvar=3.4155
New Load.Load_LD_34086415.3_model_4 Phases=1 bus1=LD_34086415.3 Kv=0.24 Kw=0.027819 Model=4 Kvar=0
New Load.Load_LD_34085047.3_model_4 Phases=1 bus1=LD_34085047.3 Kv=0.24 Kw=6.6605 Model=4 Kvar=1.6693
New Load.Load_LD_20344372.2_model_4 Phases=1 bus1=LD_20344372.2 Kv=0.24 Kw=16.038 Model=4 Kvar=4.0195
New Load.Load_LD_10573328.3_model_4 Phases=1 bus1=LD_10573328.3 Kv=0.24 Kw=4.5114 Model=4 Kvar=1.1307
New Load.Load_LD_10549290.2_model_4 Phases=1 bus1=LD_10549290.2 Kv=0.24 Kw=18.8652 Model=4 Kvar=4.7281
New Load.Load_LD_34086402.1_model_4 Phases=1 bus1=LD_34086402.1 Kv=0.24 Kw=0.49583 Model=4 Kvar=0.12427
New Load.Load_LD_34085041.1_model_4 Phases=1 bus1=LD_34085041.1 Kv=0.24 Kw=11.6856 Model=4 Kvar=2.9287
New Load.Load_LD_20344332.2_model_4 Phases=1 bus1=LD_20344332.2 Kv=0.24 Kw=12.7381 Model=4 Kvar=3.1925
New Load.Load_LD_10560616.3_model_4 Phases=1 bus1=LD_10560616.3 Kv=0.24 Kw=6.8996 Model=4 Kvar=1.7292
New Load.Load_LD_10558557.3_model_4 Phases=1 bus1=LD_10558557.3 Kv=0.24 Kw=12.0102 Model=4 Kvar=3.01
New Load.Load_LD_10526702.2_model_4 Phases=1 bus1=LD_10526702.2 Kv=0.24 Kw=4.5949 Model=4 Kvar=1.1516
New Load.Load_LD_34097297.1_model_4 Phases=1 bus1=LD_34097297.1 Kv=0.24 Kw=7.4101 Model=4 Kvar=1.8571
New Load.Load_LD_34085035.1_model_4 Phases=1 bus1=LD_34085035.1 Kv=0.24 Kw=7.7463 Model=4 Kvar=1.9414
New Load.Load_LD_20251418.3_model_4 Phases=1 bus1=LD_20251418.3 Kv=0.24 Kw=5.91 Model=4 Kvar=1.4812
New Load.Load_LD_10560281.2_model_4 Phases=1 bus1=LD_10560281.2 Kv=0.24 Kw=16.0327 Model=4 Kvar=4.0182
New Load.Load_LD_10558550.1_model_4 Phases=1 bus1=LD_10558550.1 Kv=0.24 Kw=9.4317 Model=4 Kvar=2.3638
New Load.Load_LD_34096113.2_model_4 Phases=1 bus1=LD_34096113.2 Kv=0.24 Kw=6.1264 Model=4 Kvar=1.5354
New Load.Load_LD_34084953.2_model_4 Phases=1 bus1=LD_34084953.2 Kv=0.24 Kw=9.4741 Model=4 Kvar=2.3744
New Load.Load_LD_10559592.2_model_4 Phases=1 bus1=LD_10559592.2 Kv=0.24 Kw=10.6511 Model=4 Kvar=2.6694
New Load.Load_LD_10558544.2_model_4 Phases=1 bus1=LD_10558544.2 Kv=0.24 Kw=22.5581 Model=4 Kvar=5.6536
New Load.Load_LD_10548945.3_model_4 Phases=1 bus1=LD_10548945.3 Kv=0.24 Kw=12.3401 Model=4 Kvar=3.0927
New Load.Load_LD_34084663.2_model_4 Phases=1 bus1=LD_34084663.2 Kv=0.24 Kw=21.7105 Model=4 Kvar=5.4412
New Load.Load_LD_10585091.3_model_4 Phases=1 bus1=LD_10585091.3 Kv=0.24 Kw=9.4959 Model=4 Kvar=2.3799
New Load.Load_LD_10559574.1_model_4 Phases=1 bus1=LD_10559574.1 Kv=0.24 Kw=5.2602 Model=4 Kvar=1.3183
New Load.Load_LD_10548939.3_model_4 Phases=1 bus1=LD_10548939.3 Kv=0.24 Kw=17.5967 Model=4 Kvar=4.4101
New Load.Load_LD_34095658.3_model_4 Phases=1 bus1=LD_34095658.3 Kv=0.24 Kw=5.8166 Model=4 Kvar=1.4578
New Load.Load_LD_34086299.1_model_4 Phases=1 bus1=LD_34086299.1 Kv=0.24 Kw=7.1172 Model=4 Kvar=1.7837
New Load.Load_LD_10559507.1_model_4 Phases=1 bus1=LD_10559507.1 Kv=0.24 Kw=22.298 Model=4 Kvar=5.5884
New Load.Load_LD_34057775.1_model_4 Phases=1 bus1=LD_34057775.1 Kv=0.24 Kw=14.5464 Model=4 Kvar=3.6457
New Load.Load_LD_34054978.1_model_4 Phases=1 bus1=LD_34054978.1 Kv=0.24 Kw=11.4234 Model=4 Kvar=2.863
New Load.Load_LD_10579843.3_model_4 Phases=1 bus1=LD_10579843.3 Kv=0.24 Kw=4.8616 Model=4 Kvar=1.2184


! Let DSS estimate the voltage bases
Set voltagebases=[69 13.2 0.4156922]
Calcvoltagebases     ! This also establishes the bus list

Buscoords OutputDSS_buscoords.csv


set maxiterations=1000
