Clear

New Circuit.Alpine_pvPen_35_Reduced bus1=SourceBus basekv=12 pu=1 MVAsc3=20000 MVAsc1=21000
New Line.0355_03552 Phases=3 bus1=0355.1.2.3 bus2=03552.1.2.3 Units=km Length=0.054879 Rmatrix=[0.12456     0.03762     0.03762| 0.03762     0.12456     0.03762| 0.03762     0.03762     0.12456|] Xmatrix=[ 0.6121     0.23447     0.23447| 0.23447      0.6121     0.23447| 0.23447     0.23447      0.6121|] Cmatrix=[0  0  0| 0  0  0| 0  0  0|]
New Line.03552_03553 Phases=3 bus1=03552.1.2.3 bus2=03553.1.2.3 Units=km Length=0.052578 Rmatrix=[ 0.13301    0.033396    0.033396| 0.033396     0.13301    0.033396| 0.033396    0.033396     0.13301|] Xmatrix=[0.61498     0.23303     0.23303| 0.23303     0.61498     0.23303| 0.23303     0.23303     0.61498|] Cmatrix=[0  0  0| 0  0  0| 0  0  0|]
New Line.035510_035512 Phases=3 bus1=035510.1.2.3 bus2=035512.1.2.3 Units=km Length=0.091714 Rmatrix=[ 0.13353    0.033136    0.033136| 0.033136     0.13353    0.033136| 0.033136    0.033136     0.13353|] Xmatrix=[0.61516     0.23294     0.23294| 0.23294     0.61516     0.23294| 0.23294     0.23294     0.61516|] Cmatrix=[0  0  0| 0  0  0| 0  0  0|]
New Line.035510_035510a Phases=1 bus1=035510.1 bus2=035510a.1 Units=km Length=0.003048 Rmatrix=0.086942 Xmatrix=0.37762 Cmatrix=0
New Line.035512_03551201 Phases=3 bus1=035512.1.2.3 bus2=03551201.1.2.3 Units=km Length=0.025237 Rmatrix=[ 1.1475     0.13703     0.13703| 0.13703      1.1475     0.13703| 0.13703     0.13703      1.1475|] Xmatrix=[0.87981     0.35619     0.35619| 0.35619     0.87981     0.35619| 0.35619     0.35619     0.87981|] Cmatrix=[0  0  0| 0  0  0| 0  0  0|]
New Line.035512_035513 Phases=3 bus1=035512.1.2.3 bus2=035513.1.2.3 Units=km Length=0.12293 Rmatrix=[ 0.13353    0.033136    0.033136| 0.033136     0.13353    0.033136| 0.033136    0.033136     0.13353|] Xmatrix=[0.61516     0.23294     0.23294| 0.23294     0.61516     0.23294| 0.23294     0.23294     0.61516|] Cmatrix=[0  0  0| 0  0  0| 0  0  0|]
New Line.035513_03551306 Phases=3 bus1=035513.1.2.3 bus2=03551306.1.2.3 Units=km Length=0.06855 Rmatrix=[1.0822       0.139       0.139|  0.139      1.0822       0.139|  0.139       0.139      1.0822|] Xmatrix=[0.83869     0.34853     0.34853| 0.34853     0.83869     0.34853| 0.34853     0.34853     0.83869|] Cmatrix=[0  0  0| 0  0  0| 0  0  0|]
New Line.035513_035515 Phases=3 bus1=035513.1.2.3 bus2=035515.1.2.3 Units=km Length=0.24109 Rmatrix=[  0.2161    0.056321    0.056321| 0.056321      0.2161    0.056321| 0.056321    0.056321      0.2161|] Xmatrix=[ 0.6425     0.24322     0.24322| 0.24322      0.6425     0.24322| 0.24322     0.24322      0.6425|] Cmatrix=[0  0  0| 0  0  0| 0  0  0|]
New Line.035513_03551301 Phases=2 bus1=035513.1.3 bus2=03551301.1.3 Units=km Length=0.071384 Rmatrix=[ 1.5713     0.13414| 0.13414      1.5713|] Xmatrix=[0.89016     0.38785| 0.38785     0.89016|] Cmatrix=[0  0| 0  0|]
New Line.035513_03551394a Phases=2 bus1=035513.2.3 bus2=03551394a.2.3 Units=km Length=0.094031 Rmatrix=[ 1.5868     0.13518| 0.13518      1.5868|] Xmatrix=[0.89314      0.3895|  0.3895     0.89314|] Cmatrix=[0  0| 0  0|]
New Line.03551306_03551393 Phases=2 bus1=03551306.1.3 bus2=03551393.1.3 Units=km Length=0.091928 Rmatrix=[ 1.6358     0.13845| 0.13845      1.6358|] Xmatrix=[0.90256     0.39469| 0.39469     0.90256|] Cmatrix=[0  0| 0  0|]
New Line.03551306_03551306a Phases=3 bus1=03551306.1.2.3 bus2=03551306a.1.2.3 Units=km Length=0.003048 Rmatrix=[0.12456     0.03762     0.03762| 0.03762     0.12456     0.03762| 0.03762     0.03762     0.12456|] Xmatrix=[ 0.6121     0.23447     0.23447| 0.23447      0.6121     0.23447| 0.23447     0.23447      0.6121|] Cmatrix=[0  0  0| 0  0  0| 0  0  0|]
New Line.03551306a_03551308 Phases=3 bus1=03551306a.1.2.3 bus2=03551308.1.2.3 Units=km Length=0.19572 Rmatrix=[1.0822       0.139       0.139|  0.139      1.0822       0.139|  0.139       0.139      1.0822|] Xmatrix=[0.83869     0.34853     0.34853| 0.34853     0.83869     0.34853| 0.34853     0.34853     0.83869|] Cmatrix=[0  0  0| 0  0  0| 0  0  0|]
New Line.035515_035516 Phases=3 bus1=035515.1.2.3 bus2=035516.1.2.3 Units=km Length=0.086929 Rmatrix=[  0.2161    0.056321    0.056321| 0.056321      0.2161    0.056321| 0.056321    0.056321      0.2161|] Xmatrix=[ 0.6425     0.24322     0.24322| 0.24322      0.6425     0.24322| 0.24322     0.24322      0.6425|] Cmatrix=[0  0  0| 0  0  0| 0  0  0|]
New Line.03551301_03551305 Phases=2 bus1=03551301.1.3 bus2=03551305.1.3 Units=km Length=0.10449 Rmatrix=[ 1.6358     0.13845| 0.13845      1.6358|] Xmatrix=[0.90256     0.39469| 0.39469     0.90256|] Cmatrix=[0  0| 0  0|]
New Line.03551301_03551301a Phases=2 bus1=03551301.1.3 bus2=03551301a.1.3 Units=km Length=0.003048 Rmatrix=[0.12456     0.03762| 0.03762     0.12456|] Xmatrix=[ 0.6121     0.23447| 0.23447      0.6121|] Cmatrix=[0  0| 0  0|]
New Line.03551301a_03551304 Phases=2 bus1=03551301a.1.3 bus2=03551304.1.3 Units=km Length=0.16154 Rmatrix=[0.71544     0.12194| 0.12194     0.71544|] Xmatrix=[  0.778     0.30523| 0.30523       0.778|] Cmatrix=[0  0| 0  0|]
New Line.03551308_03551314 Phases=3 bus1=03551308.1.2.3 bus2=03551314.1.2.3 Units=km Length=0.13061 Rmatrix=[1.0822       0.139       0.139|  0.139      1.0822       0.139|  0.139       0.139      1.0822|] Xmatrix=[0.83869     0.34853     0.34853| 0.34853     0.83869     0.34853| 0.34853     0.34853     0.83869|] Cmatrix=[0  0  0| 0  0  0| 0  0  0|]
New Line.03551308_03551308a Phases=2 bus1=03551308.1.3 bus2=03551308a.1.3 Units=km Length=0.003048 Rmatrix=[0.12456     0.03762| 0.03762     0.12456|] Xmatrix=[ 0.6121     0.23447| 0.23447      0.6121|] Cmatrix=[0  0| 0  0|]
New Line.03551314_03551318 Phases=3 bus1=03551314.1.2.3 bus2=03551318.1.2.3 Units=km Length=0.40057 Rmatrix=[0.91676     0.12664     0.12664| 0.12664     0.91676     0.12664| 0.12664     0.12664     0.91676|] Xmatrix=[0.81195     0.32915     0.32915| 0.32915     0.81195     0.32915| 0.32915     0.32915     0.81195|] Cmatrix=[0  0  0| 0  0  0| 0  0  0|]
New Line.03551314_03551367 Phases=2 bus1=03551314.2.3 bus2=03551367.2.3 Units=km Length=0.05968 Rmatrix=[ 1.6358     0.13845| 0.13845      1.6358|] Xmatrix=[0.90256     0.39469| 0.39469     0.90256|] Cmatrix=[0  0| 0  0|]
New Line.03551308a_03551311 Phases=2 bus1=03551308a.1.3 bus2=03551311.1.3 Units=km Length=0.15209 Rmatrix=[ 1.1256     0.13769| 0.13769      1.1256|] Xmatrix=[0.86602     0.35362| 0.35362     0.86602|] Cmatrix=[0  0| 0  0|]
New Line.03551367_03551368 Phases=2 bus1=03551367.2.3 bus2=03551368.2.3 Units=km Length=0.062423 Rmatrix=[  1.562     0.13353| 0.13353       1.562|] Xmatrix=[0.88838     0.38687| 0.38687     0.88838|] Cmatrix=[0  0| 0  0|]
New Line.03551318_03551321 Phases=3 bus1=03551318.1.2.3 bus2=03551321.1.2.3 Units=km Length=0.20254 Rmatrix=[1.0822       0.139       0.139|  0.139      1.0822       0.139|  0.139       0.139      1.0822|] Xmatrix=[0.83869     0.34853     0.34853| 0.34853     0.83869     0.34853| 0.34853     0.34853     0.83869|] Cmatrix=[0  0  0| 0  0  0| 0  0  0|]
New Line.03551318_03551365 Phases=2 bus1=03551318.1.3 bus2=03551365.1.3 Units=km Length=0.060046 Rmatrix=[1.0822       0.139|  0.139      1.0822|] Xmatrix=[0.83869     0.34853| 0.34853     0.83869|] Cmatrix=[0  0| 0  0|]
New Line.03551321_03551322 Phases=3 bus1=03551321.1.2.3 bus2=03551322.1.2.3 Units=km Length=0.076871 Rmatrix=[1.0822       0.139       0.139|  0.139      1.0822       0.139|  0.139       0.139      1.0822|] Xmatrix=[0.83869     0.34853     0.34853| 0.34853     0.83869     0.34853| 0.34853     0.34853     0.83869|] Cmatrix=[0  0  0| 0  0  0| 0  0  0|]
New Line.03551322_03551323 Phases=3 bus1=03551322.1.2.3 bus2=03551323.1.2.3 Units=km Length=0.06602 Rmatrix=[1.0822       0.139       0.139|  0.139      1.0822       0.139|  0.139       0.139      1.0822|] Xmatrix=[0.83869     0.34853     0.34853| 0.34853     0.83869     0.34853| 0.34853     0.34853     0.83869|] Cmatrix=[0  0  0| 0  0  0| 0  0  0|]
New Line.03551323_03551324 Phases=3 bus1=03551323.1.2.3 bus2=03551324.1.2.3 Units=km Length=0.048097 Rmatrix=[1.0822       0.139       0.139|  0.139      1.0822       0.139|  0.139       0.139      1.0822|] Xmatrix=[0.83869     0.34853     0.34853| 0.34853     0.83869     0.34853| 0.34853     0.34853     0.83869|] Cmatrix=[0  0  0| 0  0  0| 0  0  0|]
New Line.03551323_03551327 Phases=2 bus1=03551323.1.2 bus2=03551327.1.2 Units=km Length=0.11659 Rmatrix=[1.3876      0.1387| 0.1387      1.3876|] Xmatrix=[0.87392     0.37399| 0.37399     0.87392|] Cmatrix=[0  0| 0  0|]
New Line.03551323_03551348 Phases=2 bus1=03551323.2.3 bus2=03551348.2.3 Units=km Length=0.035448 Rmatrix=[ 1.6358     0.13845| 0.13845      1.6358|] Xmatrix=[0.90256     0.39469| 0.39469     0.90256|] Cmatrix=[0  0| 0  0|]
New Line.03551324_03551325 Phases=3 bus1=03551324.1.2.3 bus2=03551325.1.2.3 Units=km Length=0.22424 Rmatrix=[1.0822       0.139       0.139|  0.139      1.0822       0.139|  0.139       0.139      1.0822|] Xmatrix=[0.83869     0.34853     0.34853| 0.34853     0.83869     0.34853| 0.34853     0.34853     0.83869|] Cmatrix=[0  0  0| 0  0  0| 0  0  0|]
New Line.03551348_03551350 Phases=2 bus1=03551348.2.3 bus2=03551350.2.3 Units=km Length=0.13966 Rmatrix=[ 1.6358     0.13845| 0.13845      1.6358|] Xmatrix=[0.90256     0.39469| 0.39469     0.90256|] Cmatrix=[0  0| 0  0|]
New Line.03551327_03551333 Phases=2 bus1=03551327.1.2 bus2=03551333.1.2 Units=km Length=0.075621 Rmatrix=[1.0822       0.139|  0.139      1.0822|] Xmatrix=[0.83869     0.34853| 0.34853     0.83869|] Cmatrix=[0  0| 0  0|]
New Line.03551327_03551328 Phases=1 bus1=03551327.1 bus2=03551328.1 Units=km Length=0.003048 Rmatrix=0.086942 Xmatrix=0.37762 Cmatrix=0
New Line.03551333_03551336 Phases=2 bus1=03551333.1.2 bus2=03551336.1.2 Units=km Length=0.083454 Rmatrix=[ 1.1475     0.13703| 0.13703      1.1475|] Xmatrix=[0.87981     0.35619| 0.35619     0.87981|] Cmatrix=[0  0| 0  0|]
New Line.03551333_03551346 Phases=2 bus1=03551333.1.2 bus2=03551346.1.2 Units=km Length=0.031791 Rmatrix=[ 1.1475     0.13703| 0.13703      1.1475|] Xmatrix=[0.87981     0.35619| 0.35619     0.87981|] Cmatrix=[0  0| 0  0|]
New Line.03551336_03551337 Phases=2 bus1=03551336.1.2 bus2=03551337.1.2 Units=km Length=0.012984 Rmatrix=[ 1.1475     0.13703| 0.13703      1.1475|] Xmatrix=[0.87981     0.35619| 0.35619     0.87981|] Cmatrix=[0  0| 0  0|]
New Line.03551336_03551340 Phases=2 bus1=03551336.1.2 bus2=03551340.1.2 Units=km Length=0.13884 Rmatrix=[ 1.1475     0.13703| 0.13703      1.1475|] Xmatrix=[0.87981     0.35619| 0.35619     0.87981|] Cmatrix=[0  0| 0  0|]
New Line.03551336_03551343 Phases=2 bus1=03551336.1.2 bus2=03551343.1.2 Units=km Length=0.1297 Rmatrix=[ 1.1475     0.13703| 0.13703      1.1475|] Xmatrix=[0.87981     0.35619| 0.35619     0.87981|] Cmatrix=[0  0| 0  0|]
New Line.03551340_03551341 Phases=2 bus1=03551340.1.2 bus2=03551341.1.2 Units=km Length=0.058247 Rmatrix=[ 1.1475     0.13703| 0.13703      1.1475|] Xmatrix=[0.87981     0.35619| 0.35619     0.87981|] Cmatrix=[0  0| 0  0|]
New Line.03551350_03551356 Phases=2 bus1=03551350.2.3 bus2=03551356.2.3 Units=km Length=0.067635 Rmatrix=[ 1.6358     0.13845| 0.13845      1.6358|] Xmatrix=[0.90256     0.39469| 0.39469     0.90256|] Cmatrix=[0  0| 0  0|]
New Line.03551350_03551351 Phases=2 bus1=03551350.2.3 bus2=03551351.2.3 Units=km Length=0.065532 Rmatrix=[0.68796     0.11802| 0.11802     0.68796|] Xmatrix=[0.77028     0.30194| 0.30194     0.77028|] Cmatrix=[0  0| 0  0|]
New Line.03551356_03551357 Phases=2 bus1=03551356.2.3 bus2=03551357.2.3 Units=km Length=0.034412 Rmatrix=[ 1.6358     0.13845| 0.13845      1.6358|] Xmatrix=[0.90256     0.39469| 0.39469     0.90256|] Cmatrix=[0  0| 0  0|]
New Line.03551357_03551359 Phases=2 bus1=03551357.2.3 bus2=03551359.2.3 Units=km Length=0.084064 Rmatrix=[ 1.6358     0.13845| 0.13845      1.6358|] Xmatrix=[0.90256     0.39469| 0.39469     0.90256|] Cmatrix=[0  0| 0  0|]
New Line.03551351_03551353 Phases=2 bus1=03551351.2.3 bus2=03551353.2.3 Units=km Length=0.17526 Rmatrix=[0.71544     0.12194| 0.12194     0.71544|] Xmatrix=[  0.778     0.30523| 0.30523       0.778|] Cmatrix=[0  0| 0  0|]
New Line.03551353_03551354 Phases=2 bus1=03551353.2.3 bus2=03551354.2.3 Units=km Length=0.050597 Rmatrix=[0.71544     0.12194| 0.12194     0.71544|] Xmatrix=[  0.778     0.30523| 0.30523       0.778|] Cmatrix=[0  0| 0  0|]
New Line.03551354_03551355 Phases=2 bus1=03551354.2.3 bus2=03551355.2.3 Units=km Length=0.003048 Rmatrix=[0.71544     0.12194| 0.12194     0.71544|] Xmatrix=[  0.778     0.30523| 0.30523       0.778|] Cmatrix=[0  0| 0  0|]
New Line.03551359_03551361 Phases=2 bus1=03551359.2.3 bus2=03551361.2.3 Units=km Length=0.040965 Rmatrix=[ 1.6358     0.13845| 0.13845      1.6358|] Xmatrix=[0.90256     0.39469| 0.39469     0.90256|] Cmatrix=[0  0| 0  0|]
New Line.03551361_03551363 Phases=2 bus1=03551361.2.3 bus2=03551363.2.3 Units=km Length=0.11972 Rmatrix=[ 1.1475     0.13703| 0.13703      1.1475|] Xmatrix=[0.87981     0.35619| 0.35619     0.87981|] Cmatrix=[0  0| 0  0|]
New Line.03551368_03551370 Phases=2 bus1=03551368.2.3 bus2=03551370.2.3 Units=km Length=0.25396 Rmatrix=[ 1.6358     0.13845| 0.13845      1.6358|] Xmatrix=[0.90256     0.39469| 0.39469     0.90256|] Cmatrix=[0  0| 0  0|]
New Line.03551370_03551371 Phases=2 bus1=03551370.2.3 bus2=03551371.2.3 Units=km Length=0.05395 Rmatrix=[ 1.1475     0.13703| 0.13703      1.1475|] Xmatrix=[0.87981     0.35619| 0.35619     0.87981|] Cmatrix=[0  0| 0  0|]
New Line.03551370_03551390 Phases=2 bus1=03551370.2.3 bus2=03551390.2.3 Units=km Length=0.080863 Rmatrix=[ 1.1475     0.13703| 0.13703      1.1475|] Xmatrix=[0.87981     0.35619| 0.35619     0.87981|] Cmatrix=[0  0| 0  0|]
New Line.03551371_03551372 Phases=2 bus1=03551371.2.3 bus2=03551372.2.3 Units=km Length=0.032217 Rmatrix=[ 1.1475     0.13703| 0.13703      1.1475|] Xmatrix=[0.87981     0.35619| 0.35619     0.87981|] Cmatrix=[0  0| 0  0|]
New Line.03551371_03551389 Phases=2 bus1=03551371.2.3 bus2=03551389.2.3 Units=km Length=0.070378 Rmatrix=[ 1.1475     0.13703| 0.13703      1.1475|] Xmatrix=[0.87981     0.35619| 0.35619     0.87981|] Cmatrix=[0  0| 0  0|]
New Line.03551372_03551374 Phases=2 bus1=03551372.2.3 bus2=03551374.2.3 Units=km Length=0.12936 Rmatrix=[ 1.1475     0.13703| 0.13703      1.1475|] Xmatrix=[0.87981     0.35619| 0.35619     0.87981|] Cmatrix=[0  0| 0  0|]
New Line.03551372_03551387 Phases=2 bus1=03551372.2.3 bus2=03551387.2.3 Units=km Length=0.077572 Rmatrix=[ 1.1475     0.13703| 0.13703      1.1475|] Xmatrix=[0.87981     0.35619| 0.35619     0.87981|] Cmatrix=[0  0| 0  0|]
New Line.03551372_03551388 Phases=2 bus1=03551372.2.3 bus2=03551388.2.3 Units=km Length=0.013533 Rmatrix=[ 1.1475     0.13703| 0.13703      1.1475|] Xmatrix=[0.87981     0.35619| 0.35619     0.87981|] Cmatrix=[0  0| 0  0|]
New Line.03551374_03551375 Phases=2 bus1=03551374.2.3 bus2=03551375.2.3 Units=km Length=0.012253 Rmatrix=[ 1.1475     0.13703| 0.13703      1.1475|] Xmatrix=[0.87981     0.35619| 0.35619     0.87981|] Cmatrix=[0  0| 0  0|]
New Line.03551374_03551379 Phases=2 bus1=03551374.2.3 bus2=03551379.2.3 Units=km Length=0.10442 Rmatrix=[ 1.1475     0.13703| 0.13703      1.1475|] Xmatrix=[0.87981     0.35619| 0.35619     0.87981|] Cmatrix=[0  0| 0  0|]
New Line.03551379_03551381 Phases=2 bus1=03551379.2.3 bus2=03551381.2.3 Units=km Length=0.072024 Rmatrix=[ 1.1475     0.13703| 0.13703      1.1475|] Xmatrix=[0.87981     0.35619| 0.35619     0.87981|] Cmatrix=[0  0| 0  0|]
New Line.03551379_03551385a Phases=2 bus1=03551379.2.3 bus2=03551385a.2.3 Units=km Length=0.016429 Rmatrix=[0.95772     0.11859| 0.11859     0.95772|] Xmatrix=[0.83014     0.33361| 0.33361     0.83014|] Cmatrix=[0  0| 0  0|]
New Line.03551381_03551382 Phases=2 bus1=03551381.2.3 bus2=03551382.2.3 Units=km Length=0.032339 Rmatrix=[ 1.1475     0.13703| 0.13703      1.1475|] Xmatrix=[0.87981     0.35619| 0.35619     0.87981|] Cmatrix=[0  0| 0  0|]
New Line.03551382_03551383 Phases=2 bus1=03551382.2.3 bus2=03551383.2.3 Units=km Length=0.05523 Rmatrix=[ 1.1475     0.13703| 0.13703      1.1475|] Xmatrix=[0.87981     0.35619| 0.35619     0.87981|] Cmatrix=[0  0| 0  0|]
New Line.03551383_03551383a Phases=2 bus1=03551383.2.3 bus2=03551383a.2.3 Units=km Length=0.003048 Rmatrix=[0.12456     0.03762| 0.03762     0.12456|] Xmatrix=[ 0.6121     0.23447| 0.23447      0.6121|] Cmatrix=[0  0| 0  0|]
New Line.035516_035517 Phases=3 bus1=035516.1.2.3 bus2=035517.1.2.3 Units=km Length=0.024689 Rmatrix=[  0.2161    0.056321    0.056321| 0.056321      0.2161    0.056321| 0.056321    0.056321      0.2161|] Xmatrix=[ 0.6425     0.24322     0.24322| 0.24322      0.6425     0.24322| 0.24322     0.24322      0.6425|] Cmatrix=[0  0  0| 0  0  0| 0  0  0|]
New Line.035516_035516a Phases=2 bus1=035516.2.3 bus2=035516a.2.3 Units=km Length=0.003048 Rmatrix=[0.12456     0.03762| 0.03762     0.12456|] Xmatrix=[ 0.6121     0.23447| 0.23447      0.6121|] Cmatrix=[0  0| 0  0|]
New Line.035517_035518 Phases=3 bus1=035517.1.2.3 bus2=035518.1.2.3 Units=km Length=0.083454 Rmatrix=[  0.2161    0.056321    0.056321| 0.056321      0.2161    0.056321| 0.056321    0.056321      0.2161|] Xmatrix=[ 0.6425     0.24322     0.24322| 0.24322      0.6425     0.24322| 0.24322     0.24322      0.6425|] Cmatrix=[0  0  0| 0  0  0| 0  0  0|]
New Line.035517_03551703 Phases=2 bus1=035517.1.3 bus2=03551703.1.3 Units=km Length=0.13003 Rmatrix=[ 1.0598     0.13662| 0.13662      1.0598|] Xmatrix=[0.83338     0.34586| 0.34586     0.83338|] Cmatrix=[0  0| 0  0|]
New Line.035516a_03551604 Phases=2 bus1=035516a.2.3 bus2=03551604.2.3 Units=km Length=0.073304 Rmatrix=[ 1.1475     0.13703| 0.13703      1.1475|] Xmatrix=[0.87981     0.35619| 0.35619     0.87981|] Cmatrix=[0  0| 0  0|]
New Line.035518_035520 Phases=3 bus1=035518.1.2.3 bus2=035520.1.2.3 Units=km Length=0.12091 Rmatrix=[  0.2161    0.056321    0.056321| 0.056321      0.2161    0.056321| 0.056321    0.056321      0.2161|] Xmatrix=[ 0.6425     0.24322     0.24322| 0.24322      0.6425     0.24322| 0.24322     0.24322      0.6425|] Cmatrix=[0  0  0| 0  0  0| 0  0  0|]
New Line.035518_03551803 Phases=2 bus1=035518.2.3 bus2=03551803.2.3 Units=km Length=0.15319 Rmatrix=[1.0822       0.139|  0.139      1.0822|] Xmatrix=[0.83869     0.34853| 0.34853     0.83869|] Cmatrix=[0  0| 0  0|]
New Line.03551703_03551704 Phases=2 bus1=03551703.1.3 bus2=03551704.1.3 Units=km Length=0.056175 Rmatrix=[ 1.1475     0.13703| 0.13703      1.1475|] Xmatrix=[0.87981     0.35619| 0.35619     0.87981|] Cmatrix=[0  0| 0  0|]
New Line.03551703_03551708 Phases=2 bus1=03551703.1.3 bus2=03551708.1.3 Units=km Length=0.11345 Rmatrix=[1.0822       0.139|  0.139      1.0822|] Xmatrix=[0.83869     0.34853| 0.34853     0.83869|] Cmatrix=[0  0| 0  0|]
New Line.03551704_03551705 Phases=2 bus1=03551704.1.3 bus2=03551705.1.3 Units=km Length=0.060015 Rmatrix=[ 1.1475     0.13703| 0.13703      1.1475|] Xmatrix=[0.87981     0.35619| 0.35619     0.87981|] Cmatrix=[0  0| 0  0|]
New Line.03551708_03551709 Phases=2 bus1=03551708.1.3 bus2=03551709.1.3 Units=km Length=0.044623 Rmatrix=[1.0822       0.139|  0.139      1.0822|] Xmatrix=[0.83869     0.34853| 0.34853     0.83869|] Cmatrix=[0  0| 0  0|]
New Line.03551708_03551715 Phases=2 bus1=03551708.1.3 bus2=03551715.1.3 Units=km Length=0.091166 Rmatrix=[1.0822       0.139|  0.139      1.0822|] Xmatrix=[0.83869     0.34853| 0.34853     0.83869|] Cmatrix=[0  0| 0  0|]
New Line.03551708_03551716 Phases=2 bus1=03551708.1.3 bus2=03551716.1.3 Units=km Length=0.052487 Rmatrix=[0.71544     0.12194| 0.12194     0.71544|] Xmatrix=[  0.778     0.30523| 0.30523       0.778|] Cmatrix=[0  0| 0  0|]
New Line.03551705_03551706 Phases=2 bus1=03551705.1.3 bus2=03551706.1.3 Units=km Length=0.044897 Rmatrix=[ 1.1475     0.13703| 0.13703      1.1475|] Xmatrix=[0.87981     0.35619| 0.35619     0.87981|] Cmatrix=[0  0| 0  0|]
New Line.03551709_03551710 Phases=2 bus1=03551709.1.3 bus2=03551710.1.3 Units=km Length=0.13046 Rmatrix=[0.70163     0.11997| 0.11997     0.70163|] Xmatrix=[0.77412     0.30358| 0.30358     0.77412|] Cmatrix=[0  0| 0  0|]
New Line.03551706_03551707 Phases=2 bus1=03551706.1.3 bus2=03551707.1.3 Units=km Length=0.003048 Rmatrix=[ 1.1475     0.13703| 0.13703      1.1475|] Xmatrix=[0.87981     0.35619| 0.35619     0.87981|] Cmatrix=[0  0| 0  0|]
New Line.03551710_03551711 Phases=2 bus1=03551710.1.3 bus2=03551711.1.3 Units=km Length=0.069494 Rmatrix=[0.71544     0.12194| 0.12194     0.71544|] Xmatrix=[  0.778     0.30523| 0.30523       0.778|] Cmatrix=[0  0| 0  0|]
New Line.03551710_03551713 Phases=2 bus1=03551710.1.3 bus2=03551713.1.3 Units=km Length=0.26944 Rmatrix=[0.71544     0.12194| 0.12194     0.71544|] Xmatrix=[  0.778     0.30523| 0.30523       0.778|] Cmatrix=[0  0| 0  0|]
New Line.03551710_03551714 Phases=2 bus1=03551710.1.3 bus2=03551714.1.3 Units=km Length=0.15179 Rmatrix=[0.71544     0.12194| 0.12194     0.71544|] Xmatrix=[  0.778     0.30523| 0.30523       0.778|] Cmatrix=[0  0| 0  0|]
New Line.035520_035524 Phases=3 bus1=035520.1.2.3 bus2=035524.1.2.3 Units=km Length=0.32757 Rmatrix=[ 0.23357    0.059631    0.059631| 0.059631     0.23357    0.059631| 0.059631    0.059631     0.23357|] Xmatrix=[0.64733     0.24496     0.24496| 0.24496     0.64733     0.24496| 0.24496     0.24496     0.64733|] Cmatrix=[0  0  0| 0  0  0| 0  0  0|]
New Line.035520_03552001 Phases=2 bus1=035520.1.3 bus2=03552001.1.3 Units=km Length=0.081138 Rmatrix=[  1.579     0.13466| 0.13466       1.579|] Xmatrix=[0.89165     0.38867| 0.38867     0.89165|] Cmatrix=[0  0| 0  0|]
New Line.035524_035525 Phases=3 bus1=035524.1.2.3 bus2=035525.1.2.3 Units=km Length=0.066142 Rmatrix=[ 0.24547    0.061823    0.061823| 0.061823     0.24547    0.061823| 0.061823    0.061823     0.24547|] Xmatrix=[0.65038     0.24616     0.24616| 0.24616     0.65038     0.24616| 0.24616     0.24616     0.65038|] Cmatrix=[0  0  0| 0  0  0| 0  0  0|]
New Line.035525_03552501 Phases=3 bus1=035525.1.2.3 bus2=03552501.1.2.3 Units=km Length=0.04636 Rmatrix=[ 0.25131    0.062992    0.062992| 0.062992     0.25131    0.062992| 0.062992    0.062992     0.25131|] Xmatrix=[0.65223     0.24672     0.24672| 0.24672     0.65223     0.24672| 0.24672     0.24672     0.65223|] Cmatrix=[0  0  0| 0  0  0| 0  0  0|]
New Line.035525_035526 Phases=3 bus1=035525.1.2.3 bus2=035526.1.2.3 Units=km Length=0.021397 Rmatrix=[ 0.49377    0.097441    0.097441| 0.097441     0.49377    0.097441| 0.097441    0.097441     0.49377|] Xmatrix=[0.75372     0.28062     0.28062| 0.28062     0.75372     0.28062| 0.28062     0.28062     0.75372|] Cmatrix=[0  0  0| 0  0  0| 0  0  0|]
New Line.03552501_03552502 Phases=3 bus1=03552501.1.2.3 bus2=03552502.1.2.3 Units=km Length=0.053431 Rmatrix=[ 0.25131    0.062992    0.062992| 0.062992     0.25131    0.062992| 0.062992    0.062992     0.25131|] Xmatrix=[0.65223     0.24672     0.24672| 0.24672     0.65223     0.24672| 0.24672     0.24672     0.65223|] Cmatrix=[0  0  0| 0  0  0| 0  0  0|]
New Line.035526_03552601 Phases=3 bus1=035526.1.2.3 bus2=03552601.1.2.3 Units=km Length=0.12518 Rmatrix=[ 1.1475     0.13703     0.13703| 0.13703      1.1475     0.13703| 0.13703     0.13703      1.1475|] Xmatrix=[0.87981     0.35619     0.35619| 0.35619     0.87981     0.35619| 0.35619     0.35619     0.87981|] Cmatrix=[0  0  0| 0  0  0| 0  0  0|]
New Line.035526_035527a Phases=3 bus1=035526.1.2.3 bus2=035527a.1.2.3 Units=km Length=0.021702 Rmatrix=[ 0.9477     0.12476     0.12476| 0.12476      0.9477     0.12476| 0.12476     0.12476      0.9477|] Xmatrix=[0.80687     0.33251     0.33251| 0.33251     0.80687     0.33251| 0.33251     0.33251     0.80687|] Cmatrix=[0  0  0| 0  0  0| 0  0  0|]
New Line.03552502_03552503 Phases=3 bus1=03552502.1.2.3 bus2=03552503.1.2.3 Units=km Length=0.056053 Rmatrix=[ 0.24442    0.061612    0.061612| 0.061612     0.24442    0.061612| 0.061612    0.061612     0.24442|] Xmatrix=[0.65005     0.24605     0.24605| 0.24605     0.65005     0.24605| 0.24605     0.24605     0.65005|] Cmatrix=[0  0  0| 0  0  0| 0  0  0|]
New Line.03552503_03552510 Phases=3 bus1=03552503.1.2.3 bus2=03552510.1.2.3 Units=km Length=0.094701 Rmatrix=[ 0.25131    0.062992    0.062992| 0.062992     0.25131    0.062992| 0.062992    0.062992     0.25131|] Xmatrix=[0.65223     0.24672     0.24672| 0.24672     0.65223     0.24672| 0.24672     0.24672     0.65223|] Cmatrix=[0  0  0| 0  0  0| 0  0  0|]
New Line.03552503_03552504 Phases=3 bus1=03552503.1.2.3 bus2=03552504.1.2.3 Units=km Length=0.029566 Rmatrix=[0.59048     0.10599     0.10599| 0.10599     0.59048     0.10599| 0.10599     0.10599     0.59048|] Xmatrix=[0.76551     0.29166     0.29166| 0.29166     0.76551     0.29166| 0.29166     0.29166     0.76551|] Cmatrix=[0  0  0| 0  0  0| 0  0  0|]
New Line.03552510_03552514 Phases=3 bus1=03552510.1.2.3 bus2=03552514.1.2.3 Units=km Length=0.18535 Rmatrix=[ 0.25131    0.062992    0.062992| 0.062992     0.25131    0.062992| 0.062992    0.062992     0.25131|] Xmatrix=[0.65223     0.24672     0.24672| 0.24672     0.65223     0.24672| 0.24672     0.24672     0.65223|] Cmatrix=[0  0  0| 0  0  0| 0  0  0|]
New Line.03552510_03552510a Phases=3 bus1=03552510.1.2.3 bus2=03552510a.1.2.3 Units=km Length=0.003048 Rmatrix=[0.12456     0.03762     0.03762| 0.03762     0.12456     0.03762| 0.03762     0.03762     0.12456|] Xmatrix=[ 0.6121     0.23447     0.23447| 0.23447      0.6121     0.23447| 0.23447     0.23447      0.6121|] Cmatrix=[0  0  0| 0  0  0| 0  0  0|]
New Line.03552504_03552509 Phases=1 bus1=03552504.1 bus2=03552509.1 Units=km Length=0.034747 Rmatrix=0.5935 Xmatrix=0.47277 Cmatrix=0
New Line.03552504_03552508 Phases=1 bus1=03552504.3 bus2=03552508.3 Units=km Length=0.087782 Rmatrix=0.5935 Xmatrix=0.47277 Cmatrix=0
New Line.03552514_03552546 Phases=3 bus1=03552514.1.2.3 bus2=03552546.1.2.3 Units=km Length=0.15554 Rmatrix=[ 0.25131    0.062992    0.062992| 0.062992     0.25131    0.062992| 0.062992    0.062992     0.25131|] Xmatrix=[0.65223     0.24672     0.24672| 0.24672     0.65223     0.24672| 0.24672     0.24672     0.65223|] Cmatrix=[0  0  0| 0  0  0| 0  0  0|]
New Line.03552514_03552515 Phases=3 bus1=03552514.1.2.3 bus2=03552515.1.2.3 Units=km Length=0.054864 Rmatrix=[0.61517     0.10962     0.10962| 0.10962     0.61517     0.10962| 0.10962     0.10962     0.61517|] Xmatrix=[0.77364     0.29469     0.29469| 0.29469     0.77364     0.29469| 0.29469     0.29469     0.77364|] Cmatrix=[0  0  0| 0  0  0| 0  0  0|]
New Line.03552546_03552547 Phases=3 bus1=03552546.1.2.3 bus2=03552547.1.2.3 Units=km Length=0.026457 Rmatrix=[ 0.25131    0.062992    0.062992| 0.062992     0.25131    0.062992| 0.062992    0.062992     0.25131|] Xmatrix=[0.65223     0.24672     0.24672| 0.24672     0.65223     0.24672| 0.24672     0.24672     0.65223|] Cmatrix=[0  0  0| 0  0  0| 0  0  0|]
New Line.03552515_03552518 Phases=2 bus1=03552515.1.2 bus2=03552518.1.2 Units=km Length=0.094488 Rmatrix=[1.0822       0.139|  0.139      1.0822|] Xmatrix=[0.83869     0.34853| 0.34853     0.83869|] Cmatrix=[0  0| 0  0|]
New Line.03552515_03552532 Phases=3 bus1=03552515.1.2.3 bus2=03552532.1.2.3 Units=km Length=0.067361 Rmatrix=[0.71544     0.12194     0.12194| 0.12194     0.71544     0.12194| 0.12194     0.12194     0.71544|] Xmatrix=[  0.778     0.30523     0.30523| 0.30523       0.778     0.30523| 0.30523     0.30523       0.778|] Cmatrix=[0  0  0| 0  0  0| 0  0  0|]
New Line.03552518_03552522 Phases=2 bus1=03552518.1.2 bus2=03552522.1.2 Units=km Length=0.060046 Rmatrix=[1.0822       0.139|  0.139      1.0822|] Xmatrix=[0.83869     0.34853| 0.34853     0.83869|] Cmatrix=[0  0| 0  0|]
New Line.03552518_03552521 Phases=1 bus1=03552518.2 bus2=03552521.2 Units=km Length=0.17008 Rmatrix=0.94324 Xmatrix=0.49016 Cmatrix=0
New Line.03552532_03552534a Phases=1 bus1=03552532.1 bus2=03552534a.1 Units=km Length=0.17557 Rmatrix=0.60926 Xmatrix=0.71034 Cmatrix=0
New Line.03552532_03552537 Phases=1 bus1=03552532.2 bus2=03552537.2 Units=km Length=0.01585 Rmatrix=0.53018 Xmatrix=0.48491 Cmatrix=0
New Line.03552532_03552541a Phases=1 bus1=03552532.3 bus2=03552541a.3 Units=km Length=0.027127 Rmatrix=0.48038 Xmatrix=0.47285 Cmatrix=0
New Line.03552522_03552523 Phases=1 bus1=03552522.2 bus2=03552523.2 Units=km Length=0.13198 Rmatrix=0.5935 Xmatrix=0.47277 Cmatrix=0
New Line.03552537_03552537a Phases=1 bus1=03552537.2 bus2=03552537a.2 Units=km Length=0.003048 Rmatrix=0.086942 Xmatrix=0.37762 Cmatrix=0
New Line.03552541a_03552544 Phases=1 bus1=03552541a.3 bus2=03552544.3 Units=km Length=0.18928 Rmatrix=0.53018 Xmatrix=0.48491 Cmatrix=0
New Line.03552534a_03552536 Phases=1 bus1=03552534a.1 bus2=03552536.1 Units=km Length=0.11095 Rmatrix=0.53018 Xmatrix=0.48491 Cmatrix=0
New Line.03552547_03552553 Phases=3 bus1=03552547.1.2.3 bus2=03552553.1.2.3 Units=km Length=0.0851 Rmatrix=[ 0.25131    0.062992    0.062992| 0.062992     0.25131    0.062992| 0.062992    0.062992     0.25131|] Xmatrix=[0.65223     0.24672     0.24672| 0.24672     0.65223     0.24672| 0.24672     0.24672     0.65223|] Cmatrix=[0  0  0| 0  0  0| 0  0  0|]
New Line.03552553_03552571 Phases=3 bus1=03552553.1.2.3 bus2=03552571.1.2.3 Units=km Length=0.059741 Rmatrix=[ 0.25131    0.062992    0.062992| 0.062992     0.25131    0.062992| 0.062992    0.062992     0.25131|] Xmatrix=[0.65223     0.24672     0.24672| 0.24672     0.65223     0.24672| 0.24672     0.24672     0.65223|] Cmatrix=[0  0  0| 0  0  0| 0  0  0|]
New Line.03552553_03552555 Phases=2 bus1=03552553.2.3 bus2=03552555.2.3 Units=km Length=0.1335 Rmatrix=[ 1.6013     0.13615| 0.13615      1.6013|] Xmatrix=[0.89593     0.39103| 0.39103     0.89593|] Cmatrix=[0  0| 0  0|]
New Line.03552571_03552573 Phases=3 bus1=03552571.1.2.3 bus2=03552573.1.2.3 Units=km Length=0.069098 Rmatrix=[ 0.25131    0.062992    0.062992| 0.062992     0.25131    0.062992| 0.062992    0.062992     0.25131|] Xmatrix=[0.65223     0.24672     0.24672| 0.24672     0.65223     0.24672| 0.24672     0.24672     0.65223|] Cmatrix=[0  0  0| 0  0  0| 0  0  0|]
New Line.03552571_03552571a Phases=2 bus1=03552571.2.3 bus2=03552571a.2.3 Units=km Length=0.003048 Rmatrix=[0.12456     0.03762| 0.03762     0.12456|] Xmatrix=[ 0.6121     0.23447| 0.23447      0.6121|] Cmatrix=[0  0| 0  0|]
New Line.03552573_03552574 Phases=3 bus1=03552573.1.2.3 bus2=03552574.1.2.3 Units=km Length=0.031821 Rmatrix=[ 0.25131    0.062992    0.062992| 0.062992     0.25131    0.062992| 0.062992    0.062992     0.25131|] Xmatrix=[0.65223     0.24672     0.24672| 0.24672     0.65223     0.24672| 0.24672     0.24672     0.65223|] Cmatrix=[0  0  0| 0  0  0| 0  0  0|]
New Line.03552571a_03552572 Phases=2 bus1=03552571a.2.3 bus2=03552572.2.3 Units=km Length=0.06861 Rmatrix=[ 1.1475     0.13703| 0.13703      1.1475|] Xmatrix=[0.87981     0.35619| 0.35619     0.87981|] Cmatrix=[0  0| 0  0|]
New Line.03552555_03552562 Phases=2 bus1=03552555.2.3 bus2=03552562.2.3 Units=km Length=0.11674 Rmatrix=[ 1.6358     0.13845| 0.13845      1.6358|] Xmatrix=[0.90256     0.39469| 0.39469     0.90256|] Cmatrix=[0  0| 0  0|]
New Line.03552555_03552570 Phases=2 bus1=03552555.2.3 bus2=03552570.2.3 Units=km Length=0.028194 Rmatrix=[ 1.6358     0.13845| 0.13845      1.6358|] Xmatrix=[0.90256     0.39469| 0.39469     0.90256|] Cmatrix=[0  0| 0  0|]
New Line.03552555_03552556 Phases=1 bus1=03552555.2 bus2=03552556.2 Units=km Length=0.065227 Rmatrix=0.56983 Xmatrix=0.46832 Cmatrix=0
New Line.03552562_03552563 Phases=2 bus1=03552562.2.3 bus2=03552563.2.3 Units=km Length=0.025298 Rmatrix=[ 1.6358     0.13845| 0.13845      1.6358|] Xmatrix=[0.90256     0.39469| 0.39469     0.90256|] Cmatrix=[0  0| 0  0|]
New Line.03552563_03552564 Phases=2 bus1=03552563.2.3 bus2=03552564.2.3 Units=km Length=0.067666 Rmatrix=[ 1.6358     0.13845| 0.13845      1.6358|] Xmatrix=[0.90256     0.39469| 0.39469     0.90256|] Cmatrix=[0  0| 0  0|]
New Line.03552564_03552566 Phases=2 bus1=03552564.2.3 bus2=03552566.2.3 Units=km Length=0.16606 Rmatrix=[ 1.6358     0.13845| 0.13845      1.6358|] Xmatrix=[0.90256     0.39469| 0.39469     0.90256|] Cmatrix=[0  0| 0  0|]
New Line.03552574_03552575 Phases=3 bus1=03552574.1.2.3 bus2=03552575.1.2.3 Units=km Length=0.079035 Rmatrix=[ 0.25131    0.062992    0.062992| 0.062992     0.25131    0.062992| 0.062992    0.062992     0.25131|] Xmatrix=[0.65223     0.24672     0.24672| 0.24672     0.65223     0.24672| 0.24672     0.24672     0.65223|] Cmatrix=[0  0  0| 0  0  0| 0  0  0|]
New Line.03552575_03552576 Phases=3 bus1=03552575.1.2.3 bus2=03552576.1.2.3 Units=km Length=0.028164 Rmatrix=[ 0.25131    0.062992    0.062992| 0.062992     0.25131    0.062992| 0.062992    0.062992     0.25131|] Xmatrix=[0.65223     0.24672     0.24672| 0.24672     0.65223     0.24672| 0.24672     0.24672     0.65223|] Cmatrix=[0  0  0| 0  0  0| 0  0  0|]
New Line.03552576_03552577 Phases=3 bus1=03552576.1.2.3 bus2=03552577.1.2.3 Units=km Length=0.045415 Rmatrix=[ 0.25131    0.062992    0.062992| 0.062992     0.25131    0.062992| 0.062992    0.062992     0.25131|] Xmatrix=[0.65223     0.24672     0.24672| 0.24672     0.65223     0.24672| 0.24672     0.24672     0.65223|] Cmatrix=[0  0  0| 0  0  0| 0  0  0|]
New Line.03552576_03552631 Phases=2 bus1=03552576.1.2 bus2=03552631.1.2 Units=km Length=0.0082906 Rmatrix=[1.0822       0.139|  0.139      1.0822|] Xmatrix=[0.83869     0.34853| 0.34853     0.83869|] Cmatrix=[0  0| 0  0|]
New Line.03552577_03552578 Phases=3 bus1=03552577.1.2.3 bus2=03552578.1.2.3 Units=km Length=0.04188 Rmatrix=[ 0.25131    0.062992    0.062992| 0.062992     0.25131    0.062992| 0.062992    0.062992     0.25131|] Xmatrix=[0.65223     0.24672     0.24672| 0.24672     0.65223     0.24672| 0.24672     0.24672     0.65223|] Cmatrix=[0  0  0| 0  0  0| 0  0  0|]
New Line.03552631_03552631a Phases=2 bus1=03552631.1.2 bus2=03552631a.1.2 Units=km Length=0.003048 Rmatrix=[0.12456     0.03762| 0.03762     0.12456|] Xmatrix=[ 0.6121     0.23447| 0.23447      0.6121|] Cmatrix=[0  0| 0  0|]
New Line.03552578_03552580 Phases=3 bus1=03552578.1.2.3 bus2=03552580.1.2.3 Units=km Length=0.035967 Rmatrix=[ 0.24057    0.060842    0.060842| 0.060842     0.24057    0.060842| 0.060842    0.060842     0.24057|] Xmatrix=[0.64883     0.24568     0.24568| 0.24568     0.64883     0.24568| 0.24568     0.24568     0.64883|] Cmatrix=[0  0  0| 0  0  0| 0  0  0|]
New Line.03552578_03552629 Phases=3 bus1=03552578.1.2.3 bus2=03552629.1.2.3 Units=km Length=0.07559 Rmatrix=[0.69161     0.11854     0.11854| 0.11854     0.69161     0.11854| 0.11854     0.11854     0.69161|] Xmatrix=[0.77131     0.30238     0.30238| 0.30238     0.77131     0.30238| 0.30238     0.30238     0.77131|] Cmatrix=[0  0  0| 0  0  0| 0  0  0|]
New Line.03552631a_03552632 Phases=2 bus1=03552631a.1.2 bus2=03552632.1.2 Units=km Length=0.055077 Rmatrix=[ 1.6358     0.13845| 0.13845      1.6358|] Xmatrix=[0.90256     0.39469| 0.39469     0.90256|] Cmatrix=[0  0| 0  0|]
New Line.03552631a_03552639 Phases=2 bus1=03552631a.1.2 bus2=03552639.1.2 Units=km Length=0.06221 Rmatrix=[ 1.6358     0.13845| 0.13845      1.6358|] Xmatrix=[0.90256     0.39469| 0.39469     0.90256|] Cmatrix=[0  0| 0  0|]
New Line.03552580_03552581 Phases=3 bus1=03552580.1.2.3 bus2=03552581.1.2.3 Units=km Length=0.071628 Rmatrix=[0.12456     0.03762     0.03762| 0.03762     0.12456     0.03762| 0.03762     0.03762     0.12456|] Xmatrix=[ 0.6121     0.23447     0.23447| 0.23447      0.6121     0.23447| 0.23447     0.23447      0.6121|] Cmatrix=[0  0  0| 0  0  0| 0  0  0|]
New Line.03552581_03552584a Phases=3 bus1=03552581.1.2.3 bus2=03552584a.1.2.3 Units=km Length=0.13107 Rmatrix=[0.63195     0.11208     0.11208| 0.11208     0.63195     0.11208| 0.11208     0.11208     0.63195|] Xmatrix=[0.77916     0.29675     0.29675| 0.29675     0.77916     0.29675| 0.29675     0.29675     0.77916|] Cmatrix=[0  0  0| 0  0  0| 0  0  0|]
New Line.03552584a_03552585 Phases=3 bus1=03552584a.1.2.3 bus2=03552585.1.2.3 Units=km Length=0.012802 Rmatrix=[0.64403     0.11385     0.11385| 0.11385     0.64403     0.11385| 0.11385     0.11385     0.64403|] Xmatrix=[0.78314     0.29823     0.29823| 0.29823     0.78314     0.29823| 0.29823     0.29823     0.78314|] Cmatrix=[0  0  0| 0  0  0| 0  0  0|]
New Line.03552585_03552587 Phases=3 bus1=03552585.1.2.3 bus2=03552587.1.2.3 Units=km Length=0.096012 Rmatrix=[0.64403     0.11385     0.11385| 0.11385     0.64403     0.11385| 0.11385     0.11385     0.64403|] Xmatrix=[0.78314     0.29823     0.29823| 0.29823     0.78314     0.29823| 0.29823     0.29823     0.78314|] Cmatrix=[0  0  0| 0  0  0| 0  0  0|]
New Line.03552585_03552598 Phases=3 bus1=03552585.1.2.3 bus2=03552598.1.2.3 Units=km Length=0.026822 Rmatrix=[0.64403     0.11385     0.11385| 0.11385     0.64403     0.11385| 0.11385     0.11385     0.64403|] Xmatrix=[0.78314     0.29823     0.29823| 0.29823     0.78314     0.29823| 0.29823     0.29823     0.78314|] Cmatrix=[0  0  0| 0  0  0| 0  0  0|]
New Line.03552585_03552625 Phases=1 bus1=03552585.1 bus2=03552625.1 Units=km Length=0.13777 Rmatrix=0.5935 Xmatrix=0.47277 Cmatrix=0
New Line.03552585_03552622 Phases=1 bus1=03552585.3 bus2=03552622.3 Units=km Length=0.041453 Rmatrix=0.5935 Xmatrix=0.47277 Cmatrix=0
New Line.03552598_03552599 Phases=3 bus1=03552598.1.2.3 bus2=03552599.1.2.3 Units=km Length=0.11582 Rmatrix=[0.64403     0.11385     0.11385| 0.11385     0.64403     0.11385| 0.11385     0.11385     0.64403|] Xmatrix=[0.78314     0.29823     0.29823| 0.29823     0.78314     0.29823| 0.29823     0.29823     0.78314|] Cmatrix=[0  0  0| 0  0  0| 0  0  0|]
New Line.03552587_03552588 Phases=3 bus1=03552587.1.2.3 bus2=03552588.1.2.3 Units=km Length=0.039014 Rmatrix=[0.64403     0.11385     0.11385| 0.11385     0.64403     0.11385| 0.11385     0.11385     0.64403|] Xmatrix=[0.78314     0.29823     0.29823| 0.29823     0.78314     0.29823| 0.29823     0.29823     0.78314|] Cmatrix=[0  0  0| 0  0  0| 0  0  0|]
New Line.03552587_03552589 Phases=3 bus1=03552587.1.2.3 bus2=03552589.1.2.3 Units=km Length=0.077114 Rmatrix=[0.64403     0.11385     0.11385| 0.11385     0.64403     0.11385| 0.11385     0.11385     0.64403|] Xmatrix=[0.78314     0.29823     0.29823| 0.29823     0.78314     0.29823| 0.29823     0.29823     0.78314|] Cmatrix=[0  0  0| 0  0  0| 0  0  0|]
New Line.03552599_03552604 Phases=3 bus1=03552599.1.2.3 bus2=03552604.1.2.3 Units=km Length=0.18806 Rmatrix=[0.64403     0.11385     0.11385| 0.11385     0.64403     0.11385| 0.11385     0.11385     0.64403|] Xmatrix=[0.78314     0.29823     0.29823| 0.29823     0.78314     0.29823| 0.29823     0.29823     0.78314|] Cmatrix=[0  0  0| 0  0  0| 0  0  0|]
New Line.03552589_03552593 Phases=3 bus1=03552589.1.2.3 bus2=03552593.1.2.3 Units=km Length=0.029566 Rmatrix=[0.64403     0.11385     0.11385| 0.11385     0.64403     0.11385| 0.11385     0.11385     0.64403|] Xmatrix=[0.78314     0.29823     0.29823| 0.29823     0.78314     0.29823| 0.29823     0.29823     0.78314|] Cmatrix=[0  0  0| 0  0  0| 0  0  0|]
New Line.03552589_03552594 Phases=3 bus1=03552589.1.2.3 bus2=03552594.1.2.3 Units=km Length=0.015545 Rmatrix=[0.64403     0.11385     0.11385| 0.11385     0.64403     0.11385| 0.11385     0.11385     0.64403|] Xmatrix=[0.78314     0.29823     0.29823| 0.29823     0.78314     0.29823| 0.29823     0.29823     0.78314|] Cmatrix=[0  0  0| 0  0  0| 0  0  0|]
New Line.03552589_03552597 Phases=1 bus1=03552589.3 bus2=03552597.3 Units=km Length=0.10912 Rmatrix=0.5935 Xmatrix=0.47277 Cmatrix=0
New Line.03552604_03552606 Phases=2 bus1=03552604.1.3 bus2=03552606.1.3 Units=km Length=0.06922 Rmatrix=[1.1397      0.1263| 0.1263      1.1397|] Xmatrix=[0.83163     0.34588| 0.34588     0.83163|] Cmatrix=[0  0| 0  0|]
New Line.03552604_03552607 Phases=3 bus1=03552604.1.2.3 bus2=03552607.1.2.3 Units=km Length=0.039319 Rmatrix=[0.71544     0.12194     0.12194| 0.12194     0.71544     0.12194| 0.12194     0.12194     0.71544|] Xmatrix=[  0.778     0.30523     0.30523| 0.30523       0.778     0.30523| 0.30523     0.30523       0.778|] Cmatrix=[0  0  0| 0  0  0| 0  0  0|]
New Line.03552604_03552608 Phases=3 bus1=03552604.1.2.3 bus2=03552608.1.2.3 Units=km Length=0.27798 Rmatrix=[0.64403     0.11385     0.11385| 0.11385     0.64403     0.11385| 0.11385     0.11385     0.64403|] Xmatrix=[0.78314     0.29823     0.29823| 0.29823     0.78314     0.29823| 0.29823     0.29823     0.78314|] Cmatrix=[0  0  0| 0  0  0| 0  0  0|]
New Line.03552608_03552609 Phases=3 bus1=03552608.1.2.3 bus2=03552609.1.2.3 Units=km Length=0.22159 Rmatrix=[0.71544     0.12194     0.12194| 0.12194     0.71544     0.12194| 0.12194     0.12194     0.71544|] Xmatrix=[  0.778     0.30523     0.30523| 0.30523       0.778     0.30523| 0.30523     0.30523       0.778|] Cmatrix=[0  0  0| 0  0  0| 0  0  0|]
New Line.03552608_03552620 Phases=1 bus1=03552608.2 bus2=03552620.2 Units=km Length=0.26975 Rmatrix=0.5935 Xmatrix=0.47277 Cmatrix=0
New Line.035527a_035529 Phases=3 bus1=035527a.1.2.3 bus2=035529.1.2.3 Units=km Length=0.078151 Rmatrix=[1.0822       0.139       0.139|  0.139      1.0822       0.139|  0.139       0.139      1.0822|] Xmatrix=[0.83869     0.34853     0.34853| 0.34853     0.83869     0.34853| 0.34853     0.34853     0.83869|] Cmatrix=[0  0  0| 0  0  0| 0  0  0|]
New Line.03552609_03552610 Phases=3 bus1=03552609.1.2.3 bus2=03552610.1.2.3 Units=km Length=0.20361 Rmatrix=[0.71544     0.12194     0.12194| 0.12194     0.71544     0.12194| 0.12194     0.12194     0.71544|] Xmatrix=[  0.778     0.30523     0.30523| 0.30523       0.778     0.30523| 0.30523     0.30523       0.778|] Cmatrix=[0  0  0| 0  0  0| 0  0  0|]
New Line.03552609_03552617 Phases=1 bus1=03552609.3 bus2=03552617.3 Units=km Length=0.14051 Rmatrix=0.5935 Xmatrix=0.47277 Cmatrix=0
New Line.03552610_03552612 Phases=1 bus1=03552610.2 bus2=03552612.2 Units=km Length=0.10516 Rmatrix=0.5935 Xmatrix=0.47277 Cmatrix=0
New Line.03552610_03552611 Phases=1 bus1=03552610.3 bus2=03552611.3 Units=km Length=0.021031 Rmatrix=0.5935 Xmatrix=0.47277 Cmatrix=0
New Line.03552617_03552618 Phases=1 bus1=03552617.3 bus2=03552618.3 Units=km Length=0.088392 Rmatrix=0.5935 Xmatrix=0.47277 Cmatrix=0
New Line.03552620_03552621 Phases=1 bus1=03552620.2 bus2=03552621.2 Units=km Length=0.094488 Rmatrix=0.5935 Xmatrix=0.47277 Cmatrix=0
New Line.03552632_03552636 Phases=2 bus1=03552632.1.2 bus2=03552636.1.2 Units=km Length=0.32507 Rmatrix=[ 1.2896     0.13362| 0.13362      1.2896|] Xmatrix=[0.86714     0.36345| 0.36345     0.86714|] Cmatrix=[0  0| 0  0|]
New Line.03552639_03552641 Phases=2 bus1=03552639.1.2 bus2=03552641.1.2 Units=km Length=0.0381 Rmatrix=[ 1.6358     0.13845| 0.13845      1.6358|] Xmatrix=[0.90256     0.39469| 0.39469     0.90256|] Cmatrix=[0  0| 0  0|]
New Line.03552639_03552639a Phases=1 bus1=03552639.2 bus2=03552639a.2 Units=km Length=0.003048 Rmatrix=0.086942 Xmatrix=0.37762 Cmatrix=0
New Line.03552641_03552643 Phases=2 bus1=03552641.1.2 bus2=03552643.1.2 Units=km Length=0.1381 Rmatrix=[ 1.6024     0.13622| 0.13622      1.6024|] Xmatrix=[0.89615     0.39115| 0.39115     0.89615|] Cmatrix=[0  0| 0  0|]
New Line.03552643_03552644 Phases=2 bus1=03552643.1.2 bus2=03552644.1.2 Units=km Length=0.049103 Rmatrix=[ 1.6358     0.13845| 0.13845      1.6358|] Xmatrix=[0.90256     0.39469| 0.39469     0.90256|] Cmatrix=[0  0| 0  0|]
New Line.03552644_03552644a Phases=2 bus1=03552644.1.2 bus2=03552644a.1.2 Units=km Length=0.003048 Rmatrix=[0.12456     0.03762| 0.03762     0.12456|] Xmatrix=[ 0.6121     0.23447| 0.23447      0.6121|] Cmatrix=[0  0| 0  0|]
New Line.035529_035532 Phases=3 bus1=035529.1.2.3 bus2=035532.1.2.3 Units=km Length=0.13984 Rmatrix=[1.0822       0.139       0.139|  0.139      1.0822       0.139|  0.139       0.139      1.0822|] Xmatrix=[0.83869     0.34853     0.34853| 0.34853     0.83869     0.34853| 0.34853     0.34853     0.83869|] Cmatrix=[0  0  0| 0  0  0| 0  0  0|]
New Line.035529_03552902 Phases=2 bus1=035529.2.3 bus2=03552902.2.3 Units=km Length=0.10973 Rmatrix=[ 1.1191     0.13427| 0.13427      1.1191|] Xmatrix=[0.87237     0.35281| 0.35281     0.87237|] Cmatrix=[0  0| 0  0|]
New Line.03553_03555 Phases=3 bus1=03553.1.2.3 bus2=03555.1.2.3 Units=km Length=0.092872 Rmatrix=[ 0.13353    0.033136    0.033136| 0.033136     0.13353    0.033136| 0.033136    0.033136     0.13353|] Xmatrix=[0.61516     0.23294     0.23294| 0.23294     0.61516     0.23294| 0.23294     0.23294     0.61516|] Cmatrix=[0  0  0| 0  0  0| 0  0  0|]
New Line.03555_03556 Phases=3 bus1=03555.1.2.3 bus2=03556.1.2.3 Units=km Length=0.051267 Rmatrix=[ 0.13353    0.033136    0.033136| 0.033136     0.13353    0.033136| 0.033136    0.033136     0.13353|] Xmatrix=[0.61516     0.23294     0.23294| 0.23294     0.61516     0.23294| 0.23294     0.23294     0.61516|] Cmatrix=[0  0  0| 0  0  0| 0  0  0|]
New Line.03555_03555a Phases=2 bus1=03555.2.3 bus2=03555a.2.3 Units=km Length=0.003048 Rmatrix=[0.12456     0.03762| 0.03762     0.12456|] Xmatrix=[ 0.6121     0.23447| 0.23447      0.6121|] Cmatrix=[0  0| 0  0|]
New Line.035532_03553210 Phases=2 bus1=035532.1.3 bus2=03553210.1.3 Units=km Length=0.26524 Rmatrix=[0.69303     0.11762| 0.11762     0.69303|] Xmatrix=[0.78284     0.30336| 0.30336     0.78284|] Cmatrix=[0  0| 0  0|]
New Line.035532_035533 Phases=3 bus1=035532.1.2.3 bus2=035533.1.2.3 Units=km Length=0.063825 Rmatrix=[1.0822       0.139       0.139|  0.139      1.0822       0.139|  0.139       0.139      1.0822|] Xmatrix=[0.83869     0.34853     0.34853| 0.34853     0.83869     0.34853| 0.34853     0.34853     0.83869|] Cmatrix=[0  0  0| 0  0  0| 0  0  0|]
New Line.035532_03553203a Phases=2 bus1=035532.2.3 bus2=03553203a.2.3 Units=km Length=0.17514 Rmatrix=[ 1.1119     0.13357| 0.13357      1.1119|] Xmatrix=[0.87049     0.35195| 0.35195     0.87049|] Cmatrix=[0  0| 0  0|]
New Line.035533_035534 Phases=3 bus1=035533.1.2.3 bus2=035534.1.2.3 Units=km Length=0.071994 Rmatrix=[1.0822       0.139       0.139|  0.139      1.0822       0.139|  0.139       0.139      1.0822|] Xmatrix=[0.83869     0.34853     0.34853| 0.34853     0.83869     0.34853| 0.34853     0.34853     0.83869|] Cmatrix=[0  0  0| 0  0  0| 0  0  0|]
New Line.035533_035533a Phases=3 bus1=035533.1.2.3 bus2=035533a.1.2.3 Units=km Length=0.003048 Rmatrix=[0.12456     0.03762     0.03762| 0.03762     0.12456     0.03762| 0.03762     0.03762     0.12456|] Xmatrix=[ 0.6121     0.23447     0.23447| 0.23447      0.6121     0.23447| 0.23447     0.23447      0.6121|] Cmatrix=[0  0  0| 0  0  0| 0  0  0|]
New Line.035534_035535 Phases=3 bus1=035534.1.2.3 bus2=035535.1.2.3 Units=km Length=0.046116 Rmatrix=[1.0822       0.139       0.139|  0.139      1.0822       0.139|  0.139       0.139      1.0822|] Xmatrix=[0.83869     0.34853     0.34853| 0.34853     0.83869     0.34853| 0.34853     0.34853     0.83869|] Cmatrix=[0  0  0| 0  0  0| 0  0  0|]
New Line.035533a_03553303 Phases=2 bus1=035533a.1.2 bus2=03553303.1.2 Units=km Length=0.25828 Rmatrix=[ 1.6358     0.13845| 0.13845      1.6358|] Xmatrix=[0.90256     0.39469| 0.39469     0.90256|] Cmatrix=[0  0| 0  0|]
New Line.03553203a_03553204 Phases=2 bus1=03553203a.2.3 bus2=03553204.2.3 Units=km Length=0.031699 Rmatrix=[0.71544     0.12194| 0.12194     0.71544|] Xmatrix=[  0.778     0.30523| 0.30523       0.778|] Cmatrix=[0  0| 0  0|]
New Line.03553204_03553205 Phases=2 bus1=03553204.2.3 bus2=03553205.2.3 Units=km Length=0.097536 Rmatrix=[0.71544     0.12194| 0.12194     0.71544|] Xmatrix=[  0.778     0.30523| 0.30523       0.778|] Cmatrix=[0  0| 0  0|]
New Line.035535_035536 Phases=3 bus1=035535.1.2.3 bus2=035536.1.2.3 Units=km Length=0.048067 Rmatrix=[1.0822       0.139       0.139|  0.139      1.0822       0.139|  0.139       0.139      1.0822|] Xmatrix=[0.83869     0.34853     0.34853| 0.34853     0.83869     0.34853| 0.34853     0.34853     0.83869|] Cmatrix=[0  0  0| 0  0  0| 0  0  0|]
New Line.03553303_03553306 Phases=2 bus1=03553303.1.2 bus2=03553306.1.2 Units=km Length=0.20543 Rmatrix=[ 1.6358     0.13845| 0.13845      1.6358|] Xmatrix=[0.90256     0.39469| 0.39469     0.90256|] Cmatrix=[0  0| 0  0|]
New Line.03553303_03553307 Phases=2 bus1=03553303.1.2 bus2=03553307.1.2 Units=km Length=0.03368 Rmatrix=[ 1.6358     0.13845| 0.13845      1.6358|] Xmatrix=[0.90256     0.39469| 0.39469     0.90256|] Cmatrix=[0  0| 0  0|]
New Line.03553307_03553309 Phases=2 bus1=03553307.1.2 bus2=03553309.1.2 Units=km Length=0.05971 Rmatrix=[ 1.6358     0.13845| 0.13845      1.6358|] Xmatrix=[0.90256     0.39469| 0.39469     0.90256|] Cmatrix=[0  0| 0  0|]
New Line.03553309_03553310 Phases=2 bus1=03553309.1.2 bus2=03553310.1.2 Units=km Length=0.070409 Rmatrix=[ 1.1475     0.13703| 0.13703      1.1475|] Xmatrix=[0.87981     0.35619| 0.35619     0.87981|] Cmatrix=[0  0| 0  0|]
New Line.03553309_03553313 Phases=2 bus1=03553309.1.2 bus2=03553313.1.2 Units=km Length=0.1602 Rmatrix=[ 1.6358     0.13845| 0.13845      1.6358|] Xmatrix=[0.90256     0.39469| 0.39469     0.90256|] Cmatrix=[0  0| 0  0|]
New Line.03553313_03553314 Phases=2 bus1=03553313.1.2 bus2=03553314.1.2 Units=km Length=0.10497 Rmatrix=[ 1.6358     0.13845| 0.13845      1.6358|] Xmatrix=[0.90256     0.39469| 0.39469     0.90256|] Cmatrix=[0  0| 0  0|]
New Line.03553314_03553316 Phases=2 bus1=03553314.1.2 bus2=03553316.1.2 Units=km Length=0.15563 Rmatrix=[ 1.6358     0.13845| 0.13845      1.6358|] Xmatrix=[0.90256     0.39469| 0.39469     0.90256|] Cmatrix=[0  0| 0  0|]
New Line.03553314_03553329 Phases=2 bus1=03553314.1.2 bus2=03553329.1.2 Units=km Length=0.35192 Rmatrix=[ 1.6358     0.13845| 0.13845      1.6358|] Xmatrix=[0.90256     0.39469| 0.39469     0.90256|] Cmatrix=[0  0| 0  0|]
New Line.03553314_03553336 Phases=2 bus1=03553314.1.2 bus2=03553336.1.2 Units=km Length=0.059771 Rmatrix=[ 1.6358     0.13845| 0.13845      1.6358|] Xmatrix=[0.90256     0.39469| 0.39469     0.90256|] Cmatrix=[0  0| 0  0|]
New Line.03553336_03553337 Phases=2 bus1=03553336.1.2 bus2=03553337.1.2 Units=km Length=0.077114 Rmatrix=[ 1.6358     0.13845| 0.13845      1.6358|] Xmatrix=[0.90256     0.39469| 0.39469     0.90256|] Cmatrix=[0  0| 0  0|]
New Line.03553316_03553317 Phases=2 bus1=03553316.1.2 bus2=03553317.1.2 Units=km Length=0.06285 Rmatrix=[ 1.6358     0.13845| 0.13845      1.6358|] Xmatrix=[0.90256     0.39469| 0.39469     0.90256|] Cmatrix=[0  0| 0  0|]
New Line.03553337_03553340 Phases=2 bus1=03553337.1.2 bus2=03553340.1.2 Units=km Length=0.18517 Rmatrix=[ 1.6358     0.13845| 0.13845      1.6358|] Xmatrix=[0.90256     0.39469| 0.39469     0.90256|] Cmatrix=[0  0| 0  0|]
New Line.03553337_03553337a Phases=2 bus1=03553337.1.2 bus2=03553337a.1.2 Units=km Length=0.003048 Rmatrix=[0.12456     0.03762| 0.03762     0.12456|] Xmatrix=[ 0.6121     0.23447| 0.23447      0.6121|] Cmatrix=[0  0| 0  0|]
New Line.03553317_03553318 Phases=2 bus1=03553317.1.2 bus2=03553318.1.2 Units=km Length=0.092781 Rmatrix=[ 1.6358     0.13845| 0.13845      1.6358|] Xmatrix=[0.90256     0.39469| 0.39469     0.90256|] Cmatrix=[0  0| 0  0|]
New Line.03553318_03553322 Phases=2 bus1=03553318.1.2 bus2=03553322.1.2 Units=km Length=0.19751 Rmatrix=[ 1.6358     0.13845| 0.13845      1.6358|] Xmatrix=[0.90256     0.39469| 0.39469     0.90256|] Cmatrix=[0  0| 0  0|]
New Line.03553329_03553331 Phases=2 bus1=03553329.1.2 bus2=03553331.1.2 Units=km Length=0.088422 Rmatrix=[ 1.6358     0.13845| 0.13845      1.6358|] Xmatrix=[0.90256     0.39469| 0.39469     0.90256|] Cmatrix=[0  0| 0  0|]
New Line.03553331_03553332 Phases=2 bus1=03553331.1.2 bus2=03553332.1.2 Units=km Length=0.061265 Rmatrix=[ 1.6358     0.13845| 0.13845      1.6358|] Xmatrix=[0.90256     0.39469| 0.39469     0.90256|] Cmatrix=[0  0| 0  0|]
New Line.03553337a_03553338 Phases=2 bus1=03553337a.1.2 bus2=03553338.1.2 Units=km Length=0.13106 Rmatrix=[0.71544     0.12194| 0.12194     0.71544|] Xmatrix=[  0.778     0.30523| 0.30523       0.778|] Cmatrix=[0  0| 0  0|]
New Line.035536_035538 Phases=3 bus1=035536.1.2.3 bus2=035538.1.2.3 Units=km Length=0.10442 Rmatrix=[1.0822       0.139       0.139|  0.139      1.0822       0.139|  0.139       0.139      1.0822|] Xmatrix=[0.83869     0.34853     0.34853| 0.34853     0.83869     0.34853| 0.34853     0.34853     0.83869|] Cmatrix=[0  0  0| 0  0  0| 0  0  0|]
New Line.035536_03553606 Phases=2 bus1=035536.1.3 bus2=03553606.1.3 Units=km Length=0.28539 Rmatrix=[ 1.1366     0.13597| 0.13597      1.1366|] Xmatrix=[0.87695     0.35489| 0.35489     0.87695|] Cmatrix=[0  0| 0  0|]
New Line.035538_035539 Phases=3 bus1=035538.1.2.3 bus2=035539.1.2.3 Units=km Length=0.044653 Rmatrix=[1.0822       0.139       0.139|  0.139      1.0822       0.139|  0.139       0.139      1.0822|] Xmatrix=[0.83869     0.34853     0.34853| 0.34853     0.83869     0.34853| 0.34853     0.34853     0.83869|] Cmatrix=[0  0  0| 0  0  0| 0  0  0|]
New Line.035538_035538a Phases=2 bus1=035538.2.3 bus2=035538a.2.3 Units=km Length=0.003048 Rmatrix=[0.12456     0.03762| 0.03762     0.12456|] Xmatrix=[ 0.6121     0.23447| 0.23447      0.6121|] Cmatrix=[0  0| 0  0|]
New Line.03553606_03553607 Phases=2 bus1=03553606.1.3 bus2=03553607.1.3 Units=km Length=0.058308 Rmatrix=[ 1.1475     0.13703| 0.13703      1.1475|] Xmatrix=[0.87981     0.35619| 0.35619     0.87981|] Cmatrix=[0  0| 0  0|]
New Line.035539_035540 Phases=3 bus1=035539.1.2.3 bus2=035540.1.2.3 Units=km Length=0.05331 Rmatrix=[1.0822       0.139       0.139|  0.139      1.0822       0.139|  0.139       0.139      1.0822|] Xmatrix=[0.83869     0.34853     0.34853| 0.34853     0.83869     0.34853| 0.34853     0.34853     0.83869|] Cmatrix=[0  0  0| 0  0  0| 0  0  0|]
New Line.035538a_03553803 Phases=2 bus1=035538a.2.3 bus2=03553803.2.3 Units=km Length=0.1253 Rmatrix=[ 1.1475     0.13703| 0.13703      1.1475|] Xmatrix=[0.87981     0.35619| 0.35619     0.87981|] Cmatrix=[0  0| 0  0|]
New Line.035540_035541 Phases=3 bus1=035540.1.2.3 bus2=035541.1.2.3 Units=km Length=0.049713 Rmatrix=[1.0822       0.139       0.139|  0.139      1.0822       0.139|  0.139       0.139      1.0822|] Xmatrix=[0.83869     0.34853     0.34853| 0.34853     0.83869     0.34853| 0.34853     0.34853     0.83869|] Cmatrix=[0  0  0| 0  0  0| 0  0  0|]
New Line.035540_03554002 Phases=2 bus1=035540.1.2 bus2=03554002.1.2 Units=km Length=0.035052 Rmatrix=[ 1.0585     0.12839| 0.12839      1.0585|] Xmatrix=[0.85653     0.34561| 0.34561     0.85653|] Cmatrix=[0  0| 0  0|]
New Line.03553803_03553805 Phases=2 bus1=03553803.2.3 bus2=03553805.2.3 Units=km Length=0.14362 Rmatrix=[ 1.1475     0.13703| 0.13703      1.1475|] Xmatrix=[0.87981     0.35619| 0.35619     0.87981|] Cmatrix=[0  0| 0  0|]
New Line.035541_035542 Phases=3 bus1=035541.1.2.3 bus2=035542.1.2.3 Units=km Length=0.044287 Rmatrix=[1.0822       0.139       0.139|  0.139      1.0822       0.139|  0.139       0.139      1.0822|] Xmatrix=[0.83869     0.34853     0.34853| 0.34853     0.83869     0.34853| 0.34853     0.34853     0.83869|] Cmatrix=[0  0  0| 0  0  0| 0  0  0|]
New Line.03556_03558 Phases=3 bus1=03556.1.2.3 bus2=03558.1.2.3 Units=km Length=0.16706 Rmatrix=[ 0.13353    0.033136    0.033136| 0.033136     0.13353    0.033136| 0.033136    0.033136     0.13353|] Xmatrix=[0.61516     0.23294     0.23294| 0.23294     0.61516     0.23294| 0.23294     0.23294     0.61516|] Cmatrix=[0  0  0| 0  0  0| 0  0  0|]
New Line.03555a_0355503 Phases=2 bus1=03555a.2.3 bus2=0355503.2.3 Units=km Length=0.16474 Rmatrix=[ 1.1475     0.13703| 0.13703      1.1475|] Xmatrix=[0.87981     0.35619| 0.35619     0.87981|] Cmatrix=[0  0| 0  0|]
New Line.035542_035543 Phases=3 bus1=035542.1.2.3 bus2=035543.1.2.3 Units=km Length=0.041178 Rmatrix=[1.0822       0.139       0.139|  0.139      1.0822       0.139|  0.139       0.139      1.0822|] Xmatrix=[0.83869     0.34853     0.34853| 0.34853     0.83869     0.34853| 0.34853     0.34853     0.83869|] Cmatrix=[0  0  0| 0  0  0| 0  0  0|]
New Line.035542_035542a Phases=2 bus1=035542.1.3 bus2=035542a.1.3 Units=km Length=0.003048 Rmatrix=[0.12456     0.03762| 0.03762     0.12456|] Xmatrix=[ 0.6121     0.23447| 0.23447      0.6121|] Cmatrix=[0  0| 0  0|]
New Line.03554002_03554006 Phases=2 bus1=03554002.1.2 bus2=03554006.1.2 Units=km Length=0.21528 Rmatrix=[ 1.1475     0.13703| 0.13703      1.1475|] Xmatrix=[0.87981     0.35619| 0.35619     0.87981|] Cmatrix=[0  0| 0  0|]
New Line.03554006_03554007 Phases=2 bus1=03554006.1.2 bus2=03554007.1.2 Units=km Length=0.066446 Rmatrix=[ 1.1475     0.13703| 0.13703      1.1475|] Xmatrix=[0.87981     0.35619| 0.35619     0.87981|] Cmatrix=[0  0| 0  0|]
New Line.035543_03554301 Phases=3 bus1=035543.1.2.3 bus2=03554301.1.2.3 Units=km Length=0.042855 Rmatrix=[1.0822       0.139       0.139|  0.139      1.0822       0.139|  0.139       0.139      1.0822|] Xmatrix=[0.83869     0.34853     0.34853| 0.34853     0.83869     0.34853| 0.34853     0.34853     0.83869|] Cmatrix=[0  0  0| 0  0  0| 0  0  0|]
New Line.035543_035544 Phases=3 bus1=035543.1.2.3 bus2=035544.1.2.3 Units=km Length=0.089611 Rmatrix=[0.12456     0.03762     0.03762| 0.03762     0.12456     0.03762| 0.03762     0.03762     0.12456|] Xmatrix=[ 0.6121     0.23447     0.23447| 0.23447      0.6121     0.23447| 0.23447     0.23447      0.6121|] Cmatrix=[0  0  0| 0  0  0| 0  0  0|]
New Line.03554301_03554304 Phases=2 bus1=03554301.2.3 bus2=03554304.2.3 Units=km Length=0.11765 Rmatrix=[  1.121     0.13445| 0.13445       1.121|] Xmatrix=[0.87287     0.35304| 0.35304     0.87287|] Cmatrix=[0  0| 0  0|]
New Line.03554304_03554305 Phases=2 bus1=03554304.2.3 bus2=03554305.2.3 Units=km Length=0.079248 Rmatrix=[ 1.1475     0.13703| 0.13703      1.1475|] Xmatrix=[0.87981     0.35619| 0.35619     0.87981|] Cmatrix=[0  0| 0  0|]
New Line.035544_03554401 Phases=3 bus1=035544.1.2.3 bus2=03554401.1.2.3 Units=km Length=0.017374 Rmatrix=[0.64403     0.11385     0.11385| 0.11385     0.64403     0.11385| 0.11385     0.11385     0.64403|] Xmatrix=[0.78314     0.29823     0.29823| 0.29823     0.78314     0.29823| 0.29823     0.29823     0.78314|] Cmatrix=[0  0  0| 0  0  0| 0  0  0|]
New Line.035544_035546 Phases=3 bus1=035544.1.2.3 bus2=035546.1.2.3 Units=km Length=0.29718 Rmatrix=[0.12456     0.03762     0.03762| 0.03762     0.12456     0.03762| 0.03762     0.03762     0.12456|] Xmatrix=[ 0.6121     0.23447     0.23447| 0.23447      0.6121     0.23447| 0.23447     0.23447      0.6121|] Cmatrix=[0  0  0| 0  0  0| 0  0  0|]
New Line.03554401_03554401a Phases=3 bus1=03554401.1.2.3 bus2=03554401a.1.2.3 Units=km Length=0.003048 Rmatrix=[0.12456     0.03762     0.03762| 0.03762     0.12456     0.03762| 0.03762     0.03762     0.12456|] Xmatrix=[ 0.6121     0.23447     0.23447| 0.23447      0.6121     0.23447| 0.23447     0.23447      0.6121|] Cmatrix=[0  0  0| 0  0  0| 0  0  0|]
New Line.03554401a_03554402 Phases=3 bus1=03554401a.1.2.3 bus2=03554402.1.2.3 Units=km Length=0.017374 Rmatrix=[0.64403     0.11385     0.11385| 0.11385     0.64403     0.11385| 0.11385     0.11385     0.64403|] Xmatrix=[0.78314     0.29823     0.29823| 0.29823     0.78314     0.29823| 0.29823     0.29823     0.78314|] Cmatrix=[0  0  0| 0  0  0| 0  0  0|]
New Line.035546_035548 Phases=3 bus1=035546.1.2.3 bus2=035548.1.2.3 Units=km Length=0.10796 Rmatrix=[ 1.0552     0.13614     0.13614| 0.13614      1.0552     0.13614| 0.13614     0.13614      1.0552|] Xmatrix=[0.83229     0.34531     0.34531| 0.34531     0.83229     0.34531| 0.34531     0.34531     0.83229|] Cmatrix=[0  0  0| 0  0  0| 0  0  0|]
New Line.03554402_03554403 Phases=3 bus1=03554402.1.2.3 bus2=03554403.1.2.3 Units=km Length=0.13015 Rmatrix=[0.71544     0.12194     0.12194| 0.12194     0.71544     0.12194| 0.12194     0.12194     0.71544|] Xmatrix=[  0.778     0.30523     0.30523| 0.30523       0.778     0.30523| 0.30523     0.30523       0.778|] Cmatrix=[0  0  0| 0  0  0| 0  0  0|]
New Line.03554402_03554405 Phases=1 bus1=03554402.1 bus2=03554405.1 Units=km Length=0.03109 Rmatrix=0.5935 Xmatrix=0.47277 Cmatrix=0
New Line.03554402_03554406 Phases=3 bus1=03554402.1.2.3 bus2=03554406.1.2.3 Units=km Length=0.23957 Rmatrix=[0.71544     0.12194     0.12194| 0.12194     0.71544     0.12194| 0.12194     0.12194     0.71544|] Xmatrix=[  0.778     0.30523     0.30523| 0.30523       0.778     0.30523| 0.30523     0.30523       0.778|] Cmatrix=[0  0  0| 0  0  0| 0  0  0|]
New Line.03554406_03554411 Phases=2 bus1=03554406.1.3 bus2=03554411.1.3 Units=km Length=0.10857 Rmatrix=[ 1.2497     0.12945| 0.12945      1.2497|] Xmatrix=[ 0.8479     0.35679| 0.35679      0.8479|] Cmatrix=[0  0| 0  0|]
New Line.03554406_03554415 Phases=2 bus1=03554406.1.3 bus2=03554415.1.3 Units=km Length=0.095098 Rmatrix=[ 1.0829     0.12617| 0.12617      1.0829|] Xmatrix=[0.82498     0.34052| 0.34052     0.82498|] Cmatrix=[0  0| 0  0|]
New Line.03554406_03554413 Phases=1 bus1=03554406.2 bus2=03554413.2 Units=km Length=0.056693 Rmatrix=0.5935 Xmatrix=0.47277 Cmatrix=0
New Line.03554406_03554409 Phases=1 bus1=03554406.3 bus2=03554409.3 Units=km Length=0.10058 Rmatrix=0.5935 Xmatrix=0.47277 Cmatrix=0
New Line.03554411_03554412 Phases=2 bus1=03554411.1.3 bus2=03554412.1.3 Units=km Length=0.11552 Rmatrix=[0.69985     0.11972| 0.11972     0.69985|] Xmatrix=[0.77362     0.30336| 0.30336     0.77362|] Cmatrix=[0  0| 0  0|]
New Line.035548_035549 Phases=3 bus1=035548.1.2.3 bus2=035549.1.2.3 Units=km Length=0.078029 Rmatrix=[1.0822       0.139       0.139|  0.139      1.0822       0.139|  0.139       0.139      1.0822|] Xmatrix=[0.83869     0.34853     0.34853| 0.34853     0.83869     0.34853| 0.34853     0.34853     0.83869|] Cmatrix=[0  0  0| 0  0  0| 0  0  0|]
New Line.035548_035548a Phases=2 bus1=035548.1.2 bus2=035548a.1.2 Units=km Length=0.003048 Rmatrix=[0.12456     0.03762| 0.03762     0.12456|] Xmatrix=[ 0.6121     0.23447| 0.23447      0.6121|] Cmatrix=[0  0| 0  0|]
New Line.035549_035550 Phases=3 bus1=035549.1.2.3 bus2=035550.1.2.3 Units=km Length=0.043647 Rmatrix=[1.0822       0.139       0.139|  0.139      1.0822       0.139|  0.139       0.139      1.0822|] Xmatrix=[0.83869     0.34853     0.34853| 0.34853     0.83869     0.34853| 0.34853     0.34853     0.83869|] Cmatrix=[0  0  0| 0  0  0| 0  0  0|]
New Line.035549_03554901 Phases=3 bus1=035549.1.2.3 bus2=03554901.1.2.3 Units=km Length=0.043282 Rmatrix=[0.67383       0.116       0.116|   0.116     0.67383       0.116|   0.116       0.116     0.67383|] Xmatrix=[0.76632     0.30025     0.30025| 0.30025     0.76632     0.30025| 0.30025     0.30025     0.76632|] Cmatrix=[0  0  0| 0  0  0| 0  0  0|]
New Line.035548a_03554801 Phases=2 bus1=035548a.1.2 bus2=03554801.1.2 Units=km Length=0.077846 Rmatrix=[ 1.6358     0.13845| 0.13845      1.6358|] Xmatrix=[0.90256     0.39469| 0.39469     0.90256|] Cmatrix=[0  0| 0  0|]
New Line.035550_035551 Phases=3 bus1=035550.1.2.3 bus2=035551.1.2.3 Units=km Length=0.044287 Rmatrix=[1.0822       0.139       0.139|  0.139      1.0822       0.139|  0.139       0.139      1.0822|] Xmatrix=[0.83869     0.34853     0.34853| 0.34853     0.83869     0.34853| 0.34853     0.34853     0.83869|] Cmatrix=[0  0  0| 0  0  0| 0  0  0|]
New Line.03554801_03554802 Phases=2 bus1=03554801.1.2 bus2=03554802.1.2 Units=km Length=0.069555 Rmatrix=[ 1.6358     0.13845| 0.13845      1.6358|] Xmatrix=[0.90256     0.39469| 0.39469     0.90256|] Cmatrix=[0  0| 0  0|]
New Line.03554802_03554804 Phases=2 bus1=03554802.1.2 bus2=03554804.1.2 Units=km Length=0.13408 Rmatrix=[1.0822       0.139|  0.139      1.0822|] Xmatrix=[0.83869     0.34853| 0.34853     0.83869|] Cmatrix=[0  0| 0  0|]
New Line.03554804_03554807 Phases=2 bus1=03554804.1.2 bus2=03554807.1.2 Units=km Length=0.13555 Rmatrix=[0.78202     0.12283| 0.12283     0.78202|] Xmatrix=[0.79309     0.31306| 0.31306     0.79309|] Cmatrix=[0  0| 0  0|]
New Line.03554807_03554809 Phases=2 bus1=03554807.1.2 bus2=03554809.1.2 Units=km Length=0.040538 Rmatrix=[0.71544     0.12194| 0.12194     0.71544|] Xmatrix=[  0.778     0.30523| 0.30523       0.778|] Cmatrix=[0  0| 0  0|]
New Line.035551_035552 Phases=3 bus1=035551.1.2.3 bus2=035552.1.2.3 Units=km Length=0.039685 Rmatrix=[1.0822       0.139       0.139|  0.139      1.0822       0.139|  0.139       0.139      1.0822|] Xmatrix=[0.83869     0.34853     0.34853| 0.34853     0.83869     0.34853| 0.34853     0.34853     0.83869|] Cmatrix=[0  0  0| 0  0  0| 0  0  0|]
New Line.03554901_03554902 Phases=2 bus1=03554901.1.2 bus2=03554902.1.2 Units=km Length=0.073762 Rmatrix=[0.71544     0.12194| 0.12194     0.71544|] Xmatrix=[  0.778     0.30523| 0.30523       0.778|] Cmatrix=[0  0| 0  0|]
New Line.03554901_03554903 Phases=3 bus1=03554901.1.2.3 bus2=03554903.1.2.3 Units=km Length=0.24994 Rmatrix=[0.71544     0.12194     0.12194| 0.12194     0.71544     0.12194| 0.12194     0.12194     0.71544|] Xmatrix=[  0.778     0.30523     0.30523| 0.30523       0.778     0.30523| 0.30523     0.30523       0.778|] Cmatrix=[0  0  0| 0  0  0| 0  0  0|]
New Line.03554903_03554913 Phases=1 bus1=03554903.1 bus2=03554913.1 Units=km Length=0.16947 Rmatrix=0.5935 Xmatrix=0.47277 Cmatrix=0
New Line.03554903_03554904 Phases=1 bus1=03554903.2 bus2=03554904.2 Units=km Length=0.016154 Rmatrix=0.5935 Xmatrix=0.47277 Cmatrix=0
New Line.03554903_03554908 Phases=1 bus1=03554903.3 bus2=03554908.3 Units=km Length=0.21976 Rmatrix=0.5935 Xmatrix=0.47277 Cmatrix=0
New Line.03554913_03554916 Phases=1 bus1=03554913.1 bus2=03554916.1 Units=km Length=0.2475 Rmatrix=0.5935 Xmatrix=0.47277 Cmatrix=0
New Line.03554908_03554912 Phases=1 bus1=03554908.3 bus2=03554912.3 Units=km Length=0.12863 Rmatrix=0.5935 Xmatrix=0.47277 Cmatrix=0
New Line.035552_035553 Phases=3 bus1=035552.1.2.3 bus2=035553.1.2.3 Units=km Length=0.034199 Rmatrix=[1.0822       0.139       0.139|  0.139      1.0822       0.139|  0.139       0.139      1.0822|] Xmatrix=[0.83869     0.34853     0.34853| 0.34853     0.83869     0.34853| 0.34853     0.34853     0.83869|] Cmatrix=[0  0  0| 0  0  0| 0  0  0|]
New Line.035553_035555 Phases=3 bus1=035553.1.2.3 bus2=035555.1.2.3 Units=km Length=0.059192 Rmatrix=[1.0822       0.139       0.139|  0.139      1.0822       0.139|  0.139       0.139      1.0822|] Xmatrix=[0.83869     0.34853     0.34853| 0.34853     0.83869     0.34853| 0.34853     0.34853     0.83869|] Cmatrix=[0  0  0| 0  0  0| 0  0  0|]
New Line.035555_035556 Phases=3 bus1=035555.1.2.3 bus2=035556.1.2.3 Units=km Length=0.033254 Rmatrix=[1.0822       0.139       0.139|  0.139      1.0822       0.139|  0.139       0.139      1.0822|] Xmatrix=[0.83869     0.34853     0.34853| 0.34853     0.83869     0.34853| 0.34853     0.34853     0.83869|] Cmatrix=[0  0  0| 0  0  0| 0  0  0|]
New Line.035555_03555504 Phases=2 bus1=035555.2.3 bus2=03555504.2.3 Units=km Length=0.28715 Rmatrix=[ 1.2077     0.13618| 0.13618      1.2077|] Xmatrix=[0.88028      0.3605|  0.3605     0.88028|] Cmatrix=[0  0| 0  0|]
New Line.035556_03555601 Phases=3 bus1=035556.1.2.3 bus2=03555601.1.2.3 Units=km Length=0.012497 Rmatrix=[ 1.1475     0.13703     0.13703| 0.13703      1.1475     0.13703| 0.13703     0.13703      1.1475|] Xmatrix=[0.87981     0.35619     0.35619| 0.35619     0.87981     0.35619| 0.35619     0.35619     0.87981|] Cmatrix=[0  0  0| 0  0  0| 0  0  0|]
New Line.035556_035557 Phases=3 bus1=035556.1.2.3 bus2=035557.1.2.3 Units=km Length=0.052761 Rmatrix=[ 0.25131    0.062992    0.062992| 0.062992     0.25131    0.062992| 0.062992    0.062992     0.25131|] Xmatrix=[0.65223     0.24672     0.24672| 0.24672     0.65223     0.24672| 0.24672     0.24672     0.65223|] Cmatrix=[0  0  0| 0  0  0| 0  0  0|]
New Line.03555601_03555604 Phases=3 bus1=03555601.1.2.3 bus2=03555604.1.2.3 Units=km Length=0.27096 Rmatrix=[0.70879     0.12099     0.12099| 0.12099     0.70879     0.12099| 0.12099     0.12099     0.70879|] Xmatrix=[0.77613     0.30443     0.30443| 0.30443     0.77613     0.30443| 0.30443     0.30443     0.77613|] Cmatrix=[0  0  0| 0  0  0| 0  0  0|]
New Line.035557_035559 Phases=3 bus1=035557.1.2.3 bus2=035559.1.2.3 Units=km Length=0.17328 Rmatrix=[ 0.25131    0.062992    0.062992| 0.062992     0.25131    0.062992| 0.062992    0.062992     0.25131|] Xmatrix=[0.65223     0.24672     0.24672| 0.24672     0.65223     0.24672| 0.24672     0.24672     0.65223|] Cmatrix=[0  0  0| 0  0  0| 0  0  0|]
New Line.035557_03555702 Phases=2 bus1=035557.1.3 bus2=03555702.1.3 Units=km Length=0.23143 Rmatrix=[ 1.6159     0.13712| 0.13712      1.6159|] Xmatrix=[0.89873     0.39258| 0.39258     0.89873|] Cmatrix=[0  0| 0  0|]
New Line.03558_03559 Phases=3 bus1=03558.1.2.3 bus2=03559.1.2.3 Units=km Length=0.052974 Rmatrix=[ 0.13353    0.033136    0.033136| 0.033136     0.13353    0.033136| 0.033136    0.033136     0.13353|] Xmatrix=[0.61516     0.23294     0.23294| 0.23294     0.61516     0.23294| 0.23294     0.23294     0.61516|] Cmatrix=[0  0  0| 0  0  0| 0  0  0|]
New Line.03558_0355801 Phases=2 bus1=03558.2.3 bus2=0355801.2.3 Units=km Length=0.028621 Rmatrix=[ 1.1475     0.13703| 0.13703      1.1475|] Xmatrix=[0.87981     0.35619| 0.35619     0.87981|] Cmatrix=[0  0| 0  0|]
New Line.03559_035510 Phases=3 bus1=03559.1.2.3 bus2=035510.1.2.3 Units=km Length=0.092537 Rmatrix=[ 0.13353    0.033136    0.033136| 0.033136     0.13353    0.033136| 0.033136    0.033136     0.13353|] Xmatrix=[0.61516     0.23294     0.23294| 0.23294     0.61516     0.23294| 0.23294     0.23294     0.61516|] Cmatrix=[0  0  0| 0  0  0| 0  0  0|]
New Line.03559_0355902 Phases=2 bus1=03559.1.2 bus2=0355902.1.2 Units=km Length=0.17511 Rmatrix=[ 1.6358     0.13845| 0.13845      1.6358|] Xmatrix=[0.90256     0.39469| 0.39469     0.90256|] Cmatrix=[0  0| 0  0|]
New Line.03559_0355949 Phases=2 bus1=03559.2.3 bus2=0355949.2.3 Units=km Length=0.059954 Rmatrix=[1.0822       0.139|  0.139      1.0822|] Xmatrix=[0.83869     0.34853| 0.34853     0.83869|] Cmatrix=[0  0| 0  0|]
New Line.0355949_0355949a Phases=2 bus1=0355949.2.3 bus2=0355949a.2.3 Units=km Length=0.003048 Rmatrix=[0.12456     0.03762| 0.03762     0.12456|] Xmatrix=[ 0.6121     0.23447| 0.23447      0.6121|] Cmatrix=[0  0| 0  0|]
New Line.0355902_0355904 Phases=2 bus1=0355902.1.2 bus2=0355904.1.2 Units=km Length=0.16188 Rmatrix=[ 1.6358     0.13845| 0.13845      1.6358|] Xmatrix=[0.90256     0.39469| 0.39469     0.90256|] Cmatrix=[0  0| 0  0|]
New Line.0355949a_0355951 Phases=2 bus1=0355949a.2.3 bus2=0355951.2.3 Units=km Length=0.1396 Rmatrix=[1.0822       0.139|  0.139      1.0822|] Xmatrix=[0.83869     0.34853| 0.34853     0.83869|] Cmatrix=[0  0| 0  0|]
New Line.0355904_0355905 Phases=2 bus1=0355904.1.2 bus2=0355905.1.2 Units=km Length=0.26682 Rmatrix=[1.0822       0.139|  0.139      1.0822|] Xmatrix=[0.83869     0.34853| 0.34853     0.83869|] Cmatrix=[0  0| 0  0|]
New Line.0355904_0355906 Phases=2 bus1=0355904.1.2 bus2=0355906.1.2 Units=km Length=0.038953 Rmatrix=[ 1.6358     0.13845| 0.13845      1.6358|] Xmatrix=[0.90256     0.39469| 0.39469     0.90256|] Cmatrix=[0  0| 0  0|]
New Line.0355906_0355907 Phases=2 bus1=0355906.1.2 bus2=0355907.1.2 Units=km Length=0.089154 Rmatrix=[1.5841       0.135|  0.135      1.5841|] Xmatrix=[0.89263     0.38921| 0.38921     0.89263|] Cmatrix=[0  0| 0  0|]
New Line.0355907_0355908 Phases=2 bus1=0355907.1.2 bus2=0355908.1.2 Units=km Length=0.10025 Rmatrix=[ 1.6358     0.13845| 0.13845      1.6358|] Xmatrix=[0.90256     0.39469| 0.39469     0.90256|] Cmatrix=[0  0| 0  0|]
New Line.0355908_0355923 Phases=2 bus1=0355908.1.2 bus2=0355923.1.2 Units=km Length=0.13798 Rmatrix=[ 1.6358     0.13845| 0.13845      1.6358|] Xmatrix=[0.90256     0.39469| 0.39469     0.90256|] Cmatrix=[0  0| 0  0|]
New Line.0355908_0355908a Phases=1 bus1=0355908.1 bus2=0355908a.1 Units=km Length=0.003048 Rmatrix=0.086942 Xmatrix=0.37762 Cmatrix=0
New Line.0355908a_0355910 Phases=1 bus1=0355908a.1 bus2=0355910.1 Units=km Length=0.093726 Rmatrix=1.2152 Xmatrix=0.49691 Cmatrix=0
New Line.0355923_0355924 Phases=2 bus1=0355923.1.2 bus2=0355924.1.2 Units=km Length=0.12073 Rmatrix=[ 1.6358     0.13845| 0.13845      1.6358|] Xmatrix=[0.90256     0.39469| 0.39469     0.90256|] Cmatrix=[0  0| 0  0|]
New Line.0355910_0355911 Phases=1 bus1=0355910.1 bus2=0355911.1 Units=km Length=0.014326 Rmatrix=0.5935 Xmatrix=0.47277 Cmatrix=0
New Line.0355910_0355912 Phases=1 bus1=0355910.1 bus2=0355912.1 Units=km Length=0.14265 Rmatrix=0.5935 Xmatrix=0.47277 Cmatrix=0
New Line.0355912_0355913 Phases=1 bus1=0355912.1 bus2=0355913.1 Units=km Length=0.020422 Rmatrix=0.5935 Xmatrix=0.47277 Cmatrix=0
New Line.0355912_0355915 Phases=1 bus1=0355912.1 bus2=0355915.1 Units=km Length=0.15941 Rmatrix=0.5935 Xmatrix=0.47277 Cmatrix=0
New Line.0355915_0355918 Phases=1 bus1=0355915.1 bus2=0355918.1 Units=km Length=0.016459 Rmatrix=0.5935 Xmatrix=0.47277 Cmatrix=0
New Line.0355924_0355930 Phases=2 bus1=0355924.1.2 bus2=0355930.1.2 Units=km Length=0.090404 Rmatrix=[ 1.6358     0.13845| 0.13845      1.6358|] Xmatrix=[0.90256     0.39469| 0.39469     0.90256|] Cmatrix=[0  0| 0  0|]
New Line.0355924_0355925 Phases=2 bus1=0355924.1.2 bus2=0355925.1.2 Units=km Length=0.038405 Rmatrix=[0.66855     0.11525| 0.11525     0.66855|] Xmatrix=[0.76483     0.29961| 0.29961     0.76483|] Cmatrix=[0  0| 0  0|]
New Line.0355930_0355933 Phases=2 bus1=0355930.1.2 bus2=0355933.1.2 Units=km Length=0.0616 Rmatrix=[ 1.6358     0.13845| 0.13845      1.6358|] Xmatrix=[0.90256     0.39469| 0.39469     0.90256|] Cmatrix=[0  0| 0  0|]
New Line.0355930_0355930a Phases=2 bus1=0355930.1.2 bus2=0355930a.1.2 Units=km Length=0.003048 Rmatrix=[0.12456     0.03762| 0.03762     0.12456|] Xmatrix=[ 0.6121     0.23447| 0.23447      0.6121|] Cmatrix=[0  0| 0  0|]
New Line.0355933_0355942 Phases=2 bus1=0355933.1.2 bus2=0355942.1.2 Units=km Length=0.25911 Rmatrix=[ 0.9178     0.12287| 0.12287      0.9178|] Xmatrix=[0.80836     0.32473| 0.32473     0.80836|] Cmatrix=[0  0| 0  0|]
New Line.0355933_0355933a Phases=2 bus1=0355933.1.2 bus2=0355933a.1.2 Units=km Length=0.003048 Rmatrix=[0.12456     0.03762| 0.03762     0.12456|] Xmatrix=[ 0.6121     0.23447| 0.23447      0.6121|] Cmatrix=[0  0| 0  0|]
New Line.0355925_0355926 Phases=2 bus1=0355925.1.2 bus2=0355926.1.2 Units=km Length=0.074676 Rmatrix=[0.71544     0.12194| 0.12194     0.71544|] Xmatrix=[  0.778     0.30523| 0.30523       0.778|] Cmatrix=[0  0| 0  0|]
New Line.0355925_0355928 Phases=2 bus1=0355925.1.2 bus2=0355928.1.2 Units=km Length=0.020422 Rmatrix=[0.71544     0.12194| 0.12194     0.71544|] Xmatrix=[  0.778     0.30523| 0.30523       0.778|] Cmatrix=[0  0| 0  0|]
New Line.0355926_0355927 Phases=2 bus1=0355926.1.2 bus2=0355927.1.2 Units=km Length=0.003048 Rmatrix=[0.71544     0.12194| 0.12194     0.71544|] Xmatrix=[  0.778     0.30523| 0.30523       0.778|] Cmatrix=[0  0| 0  0|]
New Line.0355933a_0355934 Phases=2 bus1=0355933a.1.2 bus2=0355934.1.2 Units=km Length=0.085893 Rmatrix=[ 1.6358     0.13845| 0.13845      1.6358|] Xmatrix=[0.90256     0.39469| 0.39469     0.90256|] Cmatrix=[0  0| 0  0|]
New Transformer.355_1686B Buses=[03551328.1 03551328A.1] Conns=[wye wye] %Noloadloss=0 Phases=1 Windings=2 %imag=0 kVAs=[20000  20000] kVs=[12  12]
New Transformer.ALPINE Buses=[SourceBus 0355] Conns=[wye wye] %Noloadloss=0 Phases=3 Windings=2 %imag=0 kVAs=[20000  20000] kVs=[12  12] sub=y
New Capacitor.355_1385CW Phases=3 Bus1=03552577 Kvar=1350 Kv=12 Conn=wye states=1 Numsteps=20
New Capcontrol.capctrl_355_1385CW Element=line.03552576_03552577 Capacitor=355_1385CW Type=voltage CTRatio=100 OFFsetting=125 ONsetting=119 PTPhase=3 PTRatio=57.75 Vmax=123 Vmin=119 VoltOverride=TRUE
New XYCurve.myeff npts=4 Xarray=[0   25   75  100] Yarray=[1  1  1  1]
New XYCurve.mypvst npts=4 Xarray=[0.1         0.2         0.4           1] Yarray=[1  1  1  1]
New XYCurve.CurveFor_InvForPV_0355.1_from_03551.1 npts=6 Xarray=[0.5        0.95        0.98        1.02        1.05         1.5] Yarray=[1  1  0  0 -1 -1]
New XYCurve.CurveFor_InvForPV_03552.1_from_03551.1 npts=6 Xarray=[0.5        0.95        0.98        1.02        1.05         1.5] Yarray=[1  1  0  0 -1 -1]
New XYCurve.CurveFor_InvForPV_0355.2_from_03551.2 npts=6 Xarray=[0.5        0.95        0.98        1.02        1.05         1.5] Yarray=[1  1  0  0 -1 -1]
New XYCurve.CurveFor_InvForPV_03552.2_from_03551.2 npts=6 Xarray=[0.5        0.95        0.98        1.02        1.05         1.5] Yarray=[1  1  0  0 -1 -1]
New XYCurve.CurveFor_InvForPV_0355.3_from_03551.3 npts=6 Xarray=[0.5        0.95        0.98        1.02        1.05         1.5] Yarray=[1  1  0  0 -1 -1]
New XYCurve.CurveFor_InvForPV_03552.3_from_03551.3 npts=6 Xarray=[0.5        0.95        0.98        1.02        1.05         1.5] Yarray=[1  1  0  0 -1 -1]
New XYCurve.CurveFor_InvForPV_03552.1_from_03552.1 npts=6 Xarray=[0.5        0.95        0.98        1.02        1.05         1.5] Yarray=[1  1  0  0 -1 -1]
New XYCurve.CurveFor_InvForPV_03552.2_from_03552.2 npts=6 Xarray=[0.5        0.95        0.98        1.02        1.05         1.5] Yarray=[1  1  0  0 -1 -1]
New XYCurve.CurveFor_InvForPV_03552.3_from_03552.3 npts=6 Xarray=[0.5        0.95        0.98        1.02        1.05         1.5] Yarray=[1  1  0  0 -1 -1]
New XYCurve.CurveFor_InvForPV_03552.1_from_03552A.1 npts=6 Xarray=[0.5        0.95        0.98        1.02        1.05         1.5] Yarray=[1  1  0  0 -1 -1]
New XYCurve.CurveFor_InvForPV_03552.2_from_03552A.2 npts=6 Xarray=[0.5        0.95        0.98        1.02        1.05         1.5] Yarray=[1  1  0  0 -1 -1]
New XYCurve.CurveFor_InvForPV_03552.3_from_03552A.3 npts=6 Xarray=[0.5        0.95        0.98        1.02        1.05         1.5] Yarray=[1  1  0  0 -1 -1]
New XYCurve.CurveFor_InvForPV_035510.1_from_035511.1 npts=6 Xarray=[0.5        0.95        0.98        1.02        1.05         1.5] Yarray=[1  1  0  0 -1 -1]
New XYCurve.CurveFor_InvForPV_035512.1_from_035511.1 npts=6 Xarray=[0.5        0.95        0.98        1.02        1.05         1.5] Yarray=[1  1  0  0 -1 -1]
New XYCurve.CurveFor_InvForPV_035510A.1_from_035510A.1 npts=6 Xarray=[0.5        0.95        0.98        1.02        1.05         1.5] Yarray=[1  1  0  0 -1 -1]
New XYCurve.CurveFor_InvForPV_035512.1_from_035512.1 npts=6 Xarray=[0.5        0.95        0.98        1.02        1.05         1.5] Yarray=[1  1  0  0 -1 -1]
New XYCurve.CurveFor_InvForPV_035512.2_from_035512.2 npts=6 Xarray=[0.5        0.95        0.98        1.02        1.05         1.5] Yarray=[1  1  0  0 -1 -1]
New XYCurve.CurveFor_InvForPV_035512.3_from_035512.3 npts=6 Xarray=[0.5        0.95        0.98        1.02        1.05         1.5] Yarray=[1  1  0  0 -1 -1]
New XYCurve.CurveFor_InvForPV_03551201.1_from_03551201.1 npts=6 Xarray=[0.5        0.95        0.98        1.02        1.05         1.5] Yarray=[1  1  0  0 -1 -1]
New XYCurve.CurveFor_InvForPV_03551201.3_from_03551201.3 npts=6 Xarray=[0.5        0.95        0.98        1.02        1.05         1.5] Yarray=[1  1  0  0 -1 -1]
New XYCurve.CurveFor_InvForPV_03551306.1_from_03551306.1 npts=6 Xarray=[0.5        0.95        0.98        1.02        1.05         1.5] Yarray=[1  1  0  0 -1 -1]
New XYCurve.CurveFor_InvForPV_03551306.2_from_03551306.2 npts=6 Xarray=[0.5        0.95        0.98        1.02        1.05         1.5] Yarray=[1  1  0  0 -1 -1]
New XYCurve.CurveFor_InvForPV_03551306.3_from_03551306.3 npts=6 Xarray=[0.5        0.95        0.98        1.02        1.05         1.5] Yarray=[1  1  0  0 -1 -1]
New XYCurve.CurveFor_InvForPV_035513.1_from_035514.1 npts=6 Xarray=[0.5        0.95        0.98        1.02        1.05         1.5] Yarray=[1  1  0  0 -1 -1]
New XYCurve.CurveFor_InvForPV_035515.1_from_035514.1 npts=6 Xarray=[0.5        0.95        0.98        1.02        1.05         1.5] Yarray=[1  1  0  0 -1 -1]
New XYCurve.CurveFor_InvForPV_035513.2_from_035514.2 npts=6 Xarray=[0.5        0.95        0.98        1.02        1.05         1.5] Yarray=[1  1  0  0 -1 -1]
New XYCurve.CurveFor_InvForPV_035515.2_from_035514.2 npts=6 Xarray=[0.5        0.95        0.98        1.02        1.05         1.5] Yarray=[1  1  0  0 -1 -1]
New XYCurve.CurveFor_InvForPV_035513.3_from_035514.3 npts=6 Xarray=[0.5        0.95        0.98        1.02        1.05         1.5] Yarray=[1  1  0  0 -1 -1]
New XYCurve.CurveFor_InvForPV_035515.3_from_035514.3 npts=6 Xarray=[0.5        0.95        0.98        1.02        1.05         1.5] Yarray=[1  1  0  0 -1 -1]
[...]
New Invcontrol.InvForPV_0355924.1_from_0355924.1 PVSystemList=PV_0355924.1_from_0355924.1 Mode=VOLTVAR voltage_curvex_ref=rated vvc_curve1=CurveFor_InvForPV_0355924.1_from_0355924.1 DeltaQ_factor=0.01 hysteresis_offset=0 avgwindowlen=0s VoltageChangeTolerance=0.0001 VarChangeTolerance=0.0001 RateofChangeMode=INACTIVE LPFtau=0 RiseFallLimit=0.001 EventLog=Yes
New Invcontrol.InvForPV_0355924.2_from_0355924.2 PVSystemList=PV_0355924.2_from_0355924.2 Mode=VOLTVAR voltage_curvex_ref=rated vvc_curve1=CurveFor_InvForPV_0355924.2_from_0355924.2 DeltaQ_factor=0.01 hysteresis_offset=0 avgwindowlen=0s VoltageChangeTolerance=0.0001 VarChangeTolerance=0.0001 RateofChangeMode=INACTIVE LPFtau=0 RiseFallLimit=0.001 EventLog=Yes
New Invcontrol.InvForPV_0355930.1_from_0355930.1 PVSystemList=PV_0355930.1_from_0355930.1 Mode=VOLTVAR voltage_curvex_ref=rated vvc_curve1=CurveFor_InvForPV_0355930.1_from_0355930.1 DeltaQ_factor=0.01 hysteresis_offset=0 avgwindowlen=0s VoltageChangeTolerance=0.0001 VarChangeTolerance=0.0001 RateofChangeMode=INACTIVE LPFtau=0 RiseFallLimit=0.001 EventLog=Yes
New Invcontrol.InvForPV_0355930.2_from_0355930.2 PVSystemList=PV_0355930.2_from_0355930.2 Mode=VOLTVAR voltage_curvex_ref=rated vvc_curve1=CurveFor_InvForPV_0355930.2_from_0355930.2 DeltaQ_factor=0.01 hysteresis_offset=0 avgwindowlen=0s VoltageChangeTolerance=0.0001 VarChangeTolerance=0.0001 RateofChangeMode=INACTIVE LPFtau=0 RiseFallLimit=0.001 EventLog=Yes
New Invcontrol.InvForPV_0355933.1_from_0355933.1 PVSystemList=PV_0355933.1_from_0355933.1 Mode=VOLTVAR voltage_curvex_ref=rated vvc_curve1=CurveFor_InvForPV_0355933.1_from_0355933.1 DeltaQ_factor=0.01 hysteresis_offset=0 avgwindowlen=0s VoltageChangeTolerance=0.0001 VarChangeTolerance=0.0001 RateofChangeMode=INACTIVE LPFtau=0 RiseFallLimit=0.001 EventLog=Yes
New Invcontrol.InvForPV_0355933.2_from_0355933.2 PVSystemList=PV_0355933.2_from_0355933.2 Mode=VOLTVAR voltage_curvex_ref=rated vvc_curve1=CurveFor_InvForPV_0355933.2_from_0355933.2 DeltaQ_factor=0.01 hysteresis_offset=0 avgwindowlen=0s VoltageChangeTolerance=0.0001 VarChangeTolerance=0.0001 RateofChangeMode=INACTIVE LPFtau=0 RiseFallLimit=0.001 EventLog=Yes
New Invcontrol.InvForPV_0355930A.1_from_0355930A.1 PVSystemList=PV_0355930A.1_from_0355930A.1 Mode=VOLTVAR voltage_curvex_ref=rated vvc_curve1=CurveFor_InvForPV_0355930A.1_from_0355930A.1 DeltaQ_factor=0.01 hysteresis_offset=0 avgwindowlen=0s VoltageChangeTolerance=0.0001 VarChangeTolerance=0.0001 RateofChangeMode=INACTIVE LPFtau=0 RiseFallLimit=0.001 EventLog=Yes
New Invcontrol.InvForPV_0355930A.2_from_0355930A.2 PVSystemList=PV_0355930A.2_from_0355930A.2 Mode=VOLTVAR voltage_curvex_ref=rated vvc_curve1=CurveFor_InvForPV_0355930A.2_from_0355930A.2 DeltaQ_factor=0.01 hysteresis_offset=0 avgwindowlen=0s VoltageChangeTolerance=0.0001 VarChangeTolerance=0.0001 RateofChangeMode=INACTIVE LPFtau=0 RiseFallLimit=0.001 EventLog=Yes
New Invcontrol.InvForPV_0355925.1_from_0355925.1 PVSystemList=PV_0355925.1_from_0355925.1 Mode=VOLTVAR voltage_curvex_ref=rated vvc_curve1=CurveFor_InvForPV_0355925.1_from_0355925.1 DeltaQ_factor=0.01 hysteresis_offset=0 avgwindowlen=0s VoltageChangeTolerance=0.0001 VarChangeTolerance=0.0001 RateofChangeMode=INACTIVE LPFtau=0 RiseFallLimit=0.001 EventLog=Yes
New Invcontrol.InvForPV_0355925.2_from_0355925.2 PVSystemList=PV_0355925.2_from_0355925.2 Mode=VOLTVAR voltage_curvex_ref=rated vvc_curve1=CurveFor_InvForPV_0355925.2_from_0355925.2 DeltaQ_factor=0.01 hysteresis_offset=0 avgwindowlen=0s VoltageChangeTolerance=0.0001 VarChangeTolerance=0.0001 RateofChangeMode=INACTIVE LPFtau=0 RiseFallLimit=0.001 EventLog=Yes
New Invcontrol.InvForPV_0355926.1_from_0355926.1 PVSystemList=PV_0355926.1_from_0355926.1 Mode=VOLTVAR voltage_curvex_ref=rated vvc_curve1=CurveFor_InvForPV_0355926.1_from_0355926.1 DeltaQ_factor=0.01 hysteresis_offset=0 avgwindowlen=0s VoltageChangeTolerance=0.0001 VarChangeTolerance=0.0001 RateofChangeMode=INACTIVE LPFtau=0 RiseFallLimit=0.001 EventLog=Yes
New Invcontrol.InvForPV_0355926.2_from_0355926.2 PVSystemList=PV_0355926.2_from_0355926.2 Mode=VOLTVAR voltage_curvex_ref=rated vvc_curve1=CurveFor_InvForPV_0355926.2_from_0355926.2 DeltaQ_factor=0.01 hysteresis_offset=0 avgwindowlen=0s VoltageChangeTolerance=0.0001 VarChangeTolerance=0.0001 RateofChangeMode=INACTIVE LPFtau=0 RiseFallLimit=0.001 EventLog=Yes
New Invcontrol.InvForPV_0355928.1_from_0355928.1 PVSystemList=PV_0355928.1_from_0355928.1 Mode=VOLTVAR voltage_curvex_ref=rated vvc_curve1=CurveFor_InvForPV_0355928.1_from_0355928.1 DeltaQ_factor=0.01 hysteresis_offset=0 avgwindowlen=0s VoltageChangeTolerance=0.0001 VarChangeTolerance=0.0001 RateofChangeMode=INACTIVE LPFtau=0 RiseFallLimit=0.001 EventLog=Yes
New Invcontrol.InvForPV_0355928.2_from_0355928.2 PVSystemList=PV_0355928.2_from_0355928.2 Mode=VOLTVAR voltage_curvex_ref=rated vvc_curve1=CurveFor_InvForPV_0355928.2_from_0355928.2 DeltaQ_factor=0.01 hysteresis_offset=0 avgwindowlen=0s VoltageChangeTolerance=0.0001 VarChangeTolerance=0.0001 RateofChangeMode=INACTIVE LPFtau=0 RiseFallLimit=0.001 EventLog=Yes
New Invcontrol.InvForPV_0355928.1_from_0355929.1 PVSystemList=PV_0355928.1_from_0355929.1 Mode=VOLTVAR voltage_curvex_ref=rated vvc_curve1=CurveFor_InvForPV_0355928.1_from_0355929.1 DeltaQ_factor=0.01 hysteresis_offset=0 avgwindowlen=0s VoltageChangeTolerance=0.0001 VarChangeTolerance=0.0001 RateofChangeMode=INACTIVE LPFtau=0 RiseFallLimit=0.001 EventLog=Yes
New Invcontrol.InvForPV_0355928.2_from_0355929.2 PVSystemList=PV_0355928.2_from_0355929.2 Mode=VOLTVAR voltage_curvex_ref=rated vvc_curve1=CurveFor_InvForPV_0355928.2_from_0355929.2 DeltaQ_factor=0.01 hysteresis_offset=0 avgwindowlen=0s VoltageChangeTolerance=0.0001 VarChangeTolerance=0.0001 RateofChangeMode=INACTIVE LPFtau=0 RiseFallLimit=0.001 EventLog=Yes
New Invcontrol.InvForPV_0355933.1_from_0355939.1 PVSystemList=PV_0355933.1_from_0355939.1 Mode=VOLTVAR voltage_curvex_ref=rated vvc_curve1=CurveFor_InvForPV_0355933.1_from_0355939.1 DeltaQ_factor=0.01 hysteresis_offset=0 avgwindowlen=0s VoltageChangeTolerance=0.0001 VarChangeTolerance=0.0001 RateofChangeMode=INACTIVE LPFtau=0 RiseFallLimit=0.001 EventLog=Yes
New Invcontrol.InvForPV_0355942.1_from_0355939.1 PVSystemList=PV_0355942.1_from_0355939.1 Mode=VOLTVAR voltage_curvex_ref=rated vvc_curve1=CurveFor_InvForPV_0355942.1_from_0355939.1 DeltaQ_factor=0.01 hysteresis_offset=0 avgwindowlen=0s VoltageChangeTolerance=0.0001 VarChangeTolerance=0.0001 RateofChangeMode=INACTIVE LPFtau=0 RiseFallLimit=0.001 EventLog=Yes
New Invcontrol.InvForPV_0355942.2_from_0355939.1 PVSystemList=PV_0355942.2_from_0355939.1 Mode=VOLTVAR voltage_curvex_ref=rated vvc_curve1=CurveFor_InvForPV_0355942.2_from_0355939.1 DeltaQ_factor=0.01 hysteresis_offset=0 avgwindowlen=0s VoltageChangeTolerance=0.0001 VarChangeTolerance=0.0001 RateofChangeMode=INACTIVE LPFtau=0 RiseFallLimit=0.001 EventLog=Yes
New Invcontrol.InvForPV_0355933.2_from_0355939.2 PVSystemList=PV_0355933.2_from_0355939.2 Mode=VOLTVAR voltage_curvex_ref=rated vvc_curve1=CurveFor_InvForPV_0355933.2_from_0355939.2 DeltaQ_factor=0.01 hysteresis_offset=0 avgwindowlen=0s VoltageChangeTolerance=0.0001 VarChangeTolerance=0.0001 RateofChangeMode=INACTIVE LPFtau=0 RiseFallLimit=0.001 EventLog=Yes
New Invcontrol.InvForPV_0355942.1_from_0355939.2 PVSystemList=PV_0355942.1_from_0355939.2 Mode=VOLTVAR voltage_curvex_ref=rated vvc_curve1=CurveFor_InvForPV_0355942.1_from_0355939.2 DeltaQ_factor=0.01 hysteresis_offset=0 avgwindowlen=0s VoltageChangeTolerance=0.0001 VarChangeTolerance=0.0001 RateofChangeMode=INACTIVE LPFtau=0 RiseFallLimit=0.001 EventLog=Yes
New Invcontrol.InvForPV_0355942.2_from_0355939.2 PVSystemList=PV_0355942.2_from_0355939.2 Mode=VOLTVAR voltage_curvex_ref=rated vvc_curve1=CurveFor_InvForPV_0355942.2_from_0355939.2 DeltaQ_factor=0.01 hysteresis_offset=0 avgwindowlen=0s VoltageChangeTolerance=0.0001 VarChangeTolerance=0.0001 RateofChangeMode=INACTIVE LPFtau=0 RiseFallLimit=0.001 EventLog=Yes
New Invcontrol.InvForPV_0355933A.1_from_0355933A.1 PVSystemList=PV_0355933A.1_from_0355933A.1 Mode=VOLTVAR voltage_curvex_ref=rated vvc_curve1=CurveFor_InvForPV_0355933A.1_from_0355933A.1 DeltaQ_factor=0.01 hysteresis_offset=0 avgwindowlen=0s VoltageChangeTolerance=0.0001 VarChangeTolerance=0.0001 RateofChangeMode=INACTIVE LPFtau=0 RiseFallLimit=0.001 EventLog=Yes
New Invcontrol.InvForPV_0355933A.2_from_0355933A.2 PVSystemList=PV_0355933A.2_from_0355933A.2 Mode=VOLTVAR voltage_curvex_ref=rated vvc_curve1=CurveFor_InvForPV_0355933A.2_from_0355933A.2 DeltaQ_factor=0.01 hysteresis_offset=0 avgwindowlen=0s VoltageChangeTolerance=0.0001 VarChangeTolerance=0.0001 RateofChangeMode=INACTIVE LPFtau=0 RiseFallLimit=0.001 EventLog=Yes
New Invcontrol.InvForPV_0355930A.1_from_0355931.1 PVSystemList=PV_0355930A.1_from_0355931.1 Mode=VOLTVAR voltage_curvex_ref=rated vvc_curve1=CurveFor_InvForPV_0355930A.1_from_0355931.1 DeltaQ_factor=0.01 hysteresis_offset=0 avgwindowlen=0s VoltageChangeTolerance=0.0001 VarChangeTolerance=0.0001 RateofChangeMode=INACTIVE LPFtau=0 RiseFallLimit=0.001 EventLog=Yes
New Invcontrol.InvForPV_0355930A.2_from_0355931.2 PVSystemList=PV_0355930A.2_from_0355931.2 Mode=VOLTVAR voltage_curvex_ref=rated vvc_curve1=CurveFor_InvForPV_0355930A.2_from_0355931.2 DeltaQ_factor=0.01 hysteresis_offset=0 avgwindowlen=0s VoltageChangeTolerance=0.0001 VarChangeTolerance=0.0001 RateofChangeMode=INACTIVE LPFtau=0 RiseFallLimit=0.001 EventLog=Yes
New Invcontrol.InvForPV_0355933.1_from_0355939A.1 PVSystemList=PV_0355933.1_from_0355939A.1 Mode=VOLTVAR voltage_curvex_ref=rated vvc_curve1=CurveFor_InvForPV_0355933.1_from_0355939A.1 DeltaQ_factor=0.01 hysteresis_offset=0 avgwindowlen=0s VoltageChangeTolerance=0.0001 VarChangeTolerance=0.0001 RateofChangeMode=INACTIVE LPFtau=0 RiseFallLimit=0.001 EventLog=Yes
New Invcontrol.InvForPV_0355942.1_from_0355939A.1 PVSystemList=PV_0355942.1_from_0355939A.1 Mode=VOLTVAR voltage_curvex_ref=rated vvc_curve1=CurveFor_InvForPV_0355942.1_from_0355939A.1 DeltaQ_factor=0.01 hysteresis_offset=0 avgwindowlen=0s VoltageChangeTolerance=0.0001 VarChangeTolerance=0.0001 RateofChangeMode=INACTIVE LPFtau=0 RiseFallLimit=0.001 EventLog=Yes
New Invcontrol.InvForPV_0355942.2_from_0355939A.1 PVSystemList=PV_0355942.2_from_0355939A.1 Mode=VOLTVAR voltage_curvex_ref=rated vvc_curve1=CurveFor_InvForPV_0355942.2_from_0355939A.1 DeltaQ_factor=0.01 hysteresis_offset=0 avgwindowlen=0s VoltageChangeTolerance=0.0001 VarChangeTolerance=0.0001 RateofChangeMode=INACTIVE LPFtau=0 RiseFallLimit=0.001 EventLog=Yes
New Invcontrol.InvForPV_0355933.2_from_0355939A.2 PVSystemList=PV_0355933.2_from_0355939A.2 Mode=VOLTVAR voltage_curvex_ref=rated vvc_curve1=CurveFor_InvForPV_0355933.2_from_0355939A.2 DeltaQ_factor=0.01 hysteresis_offset=0 avgwindowlen=0s VoltageChangeTolerance=0.0001 VarChangeTolerance=0.0001 RateofChangeMode=INACTIVE LPFtau=0 RiseFallLimit=0.001 EventLog=Yes
New Invcontrol.InvForPV_0355942.1_from_0355939A.2 PVSystemList=PV_0355942.1_from_0355939A.2 Mode=VOLTVAR voltage_curvex_ref=rated vvc_curve1=CurveFor_InvForPV_0355942.1_from_0355939A.2 DeltaQ_factor=0.01 hysteresis_offset=0 avgwindowlen=0s VoltageChangeTolerance=0.0001 VarChangeTolerance=0.0001 RateofChangeMode=INACTIVE LPFtau=0 RiseFallLimit=0.001 EventLog=Yes
New Invcontrol.InvForPV_0355942.2_from_0355939A.2 PVSystemList=PV_0355942.2_from_0355939A.2 Mode=VOLTVAR voltage_curvex_ref=rated vvc_curve1=CurveFor_InvForPV_0355942.2_from_0355939A.2 DeltaQ_factor=0.01 hysteresis_offset=0 avgwindowlen=0s VoltageChangeTolerance=0.0001 VarChangeTolerance=0.0001 RateofChangeMode=INACTIVE LPFtau=0 RiseFallLimit=0.001 EventLog=Yes
New Invcontrol.InvForPV_0355934.1_from_0355934.1 PVSystemList=PV_0355934.1_from_0355934.1 Mode=VOLTVAR voltage_curvex_ref=rated vvc_curve1=CurveFor_InvForPV_0355934.1_from_0355934.1 DeltaQ_factor=0.01 hysteresis_offset=0 avgwindowlen=0s VoltageChangeTolerance=0.0001 VarChangeTolerance=0.0001 RateofChangeMode=INACTIVE LPFtau=0 RiseFallLimit=0.001 EventLog=Yes
New Invcontrol.InvForPV_0355934.2_from_0355934.2 PVSystemList=PV_0355934.2_from_0355934.2 Mode=VOLTVAR voltage_curvex_ref=rated vvc_curve1=CurveFor_InvForPV_0355934.2_from_0355934.2 DeltaQ_factor=0.01 hysteresis_offset=0 avgwindowlen=0s VoltageChangeTolerance=0.0001 VarChangeTolerance=0.0001 RateofChangeMode=INACTIVE LPFtau=0 RiseFallLimit=0.001 EventLog=Yes
New Invcontrol.InvForPV_0355934.1_from_0355936.1 PVSystemList=PV_0355934.1_from_0355936.1 Mode=VOLTVAR voltage_curvex_ref=rated vvc_curve1=CurveFor_InvForPV_0355934.1_from_0355936.1 DeltaQ_factor=0.01 hysteresis_offset=0 avgwindowlen=0s VoltageChangeTolerance=0.0001 VarChangeTolerance=0.0001 RateofChangeMode=INACTIVE LPFtau=0 RiseFallLimit=0.001 EventLog=Yes
New Invcontrol.InvForPV_0355934.2_from_0355936.2 PVSystemList=PV_0355934.2_from_0355936.2 Mode=VOLTVAR voltage_curvex_ref=rated vvc_curve1=CurveFor_InvForPV_0355934.2_from_0355936.2 DeltaQ_factor=0.01 hysteresis_offset=0 avgwindowlen=0s VoltageChangeTolerance=0.0001 VarChangeTolerance=0.0001 RateofChangeMode=INACTIVE LPFtau=0 RiseFallLimit=0.001 EventLog=Yes
New Invcontrol.InvForPV_0355934.1_from_0355937.1 PVSystemList=PV_0355934.1_from_0355937.1 Mode=VOLTVAR voltage_curvex_ref=rated vvc_curve1=CurveFor_InvForPV_0355934.1_from_0355937.1 DeltaQ_factor=0.01 hysteresis_offset=0 avgwindowlen=0s VoltageChangeTolerance=0.0001 VarChangeTolerance=0.0001 RateofChangeMode=INACTIVE LPFtau=0 RiseFallLimit=0.001 EventLog=Yes
New Invcontrol.InvForPV_0355934.2_from_0355937.2 PVSystemList=PV_0355934.2_from_0355937.2 Mode=VOLTVAR voltage_curvex_ref=rated vvc_curve1=CurveFor_InvForPV_0355934.2_from_0355937.2 DeltaQ_factor=0.01 hysteresis_offset=0 avgwindowlen=0s VoltageChangeTolerance=0.0001 VarChangeTolerance=0.0001 RateofChangeMode=INACTIVE LPFtau=0 RiseFallLimit=0.001 EventLog=Yes
New Invcontrol.InvForPV_0355933.1_from_0355940.1 PVSystemList=PV_0355933.1_from_0355940.1 Mode=VOLTVAR voltage_curvex_ref=rated vvc_curve1=CurveFor_InvForPV_0355933.1_from_0355940.1 DeltaQ_factor=0.01 hysteresis_offset=0 avgwindowlen=0s VoltageChangeTolerance=0.0001 VarChangeTolerance=0.0001 RateofChangeMode=INACTIVE LPFtau=0 RiseFallLimit=0.001 EventLog=Yes
New Invcontrol.InvForPV_0355942.1_from_0355940.1 PVSystemList=PV_0355942.1_from_0355940.1 Mode=VOLTVAR voltage_curvex_ref=rated vvc_curve1=CurveFor_InvForPV_0355942.1_from_0355940.1 DeltaQ_factor=0.01 hysteresis_offset=0 avgwindowlen=0s VoltageChangeTolerance=0.0001 VarChangeTolerance=0.0001 RateofChangeMode=INACTIVE LPFtau=0 RiseFallLimit=0.001 EventLog=Yes
New Invcontrol.InvForPV_0355942.2_from_0355940.1 PVSystemList=PV_0355942.2_from_0355940.1 Mode=VOLTVAR voltage_curvex_ref=rated vvc_curve1=CurveFor_InvForPV_0355942.2_from_0355940.1 DeltaQ_factor=0.01 hysteresis_offset=0 avgwindowlen=0s VoltageChangeTolerance=0.0001 VarChangeTolerance=0.0001 RateofChangeMode=INACTIVE LPFtau=0 RiseFallLimit=0.001 EventLog=Yes
New Invcontrol.InvForPV_0355933.2_from_0355940.2 PVSystemList=PV_0355933.2_from_0355940.2 Mode=VOLTVAR voltage_curvex_ref=rated vvc_curve1=CurveFor_InvForPV_0355933.2_from_0355940.2 DeltaQ_factor=0.01 hysteresis_offset=0 avgwindowlen=0s VoltageChangeTolerance=0.0001 VarChangeTolerance=0.0001 RateofChangeMode=INACTIVE LPFtau=0 RiseFallLimit=0.001 EventLog=Yes
New Invcontrol.InvForPV_0355942.1_from_0355940.2 PVSystemList=PV_0355942.1_from_0355940.2 Mode=VOLTVAR voltage_curvex_ref=rated vvc_curve1=CurveFor_InvForPV_0355942.1_from_0355940.2 DeltaQ_factor=0.01 hysteresis_offset=0 avgwindowlen=0s VoltageChangeTolerance=0.0001 VarChangeTolerance=0.0001 RateofChangeMode=INACTIVE LPFtau=0 RiseFallLimit=0.001 EventLog=Yes
New Invcontrol.InvForPV_0355942.2_from_0355940.2 PVSystemList=PV_0355942.2_from_0355940.2 Mode=VOLTVAR voltage_curvex_ref=rated vvc_curve1=CurveFor_InvForPV_0355942.2_from_0355940.2 DeltaQ_factor=0.01 hysteresis_offset=0 avgwindowlen=0s VoltageChangeTolerance=0.0001 VarChangeTolerance=0.0001 RateofChangeMode=INACTIVE LPFtau=0 RiseFallLimit=0.001 EventLog=Yes
New Invcontrol.InvForPV_0355933.1_from_0355941.1 PVSystemList=PV_0355933.1_from_0355941.1 Mode=VOLTVAR voltage_curvex_ref=rated vvc_curve1=CurveFor_InvForPV_0355933.1_from_0355941.1 DeltaQ_factor=0.01 hysteresis_offset=0 avgwindowlen=0s VoltageChangeTolerance=0.0001 VarChangeTolerance=0.0001 RateofChangeMode=INACTIVE LPFtau=0 RiseFallLimit=0.001 EventLog=Yes
New Invcontrol.InvForPV_0355942.1_from_0355941.1 PVSystemList=PV_0355942.1_from_0355941.1 Mode=VOLTVAR voltage_curvex_ref=rated vvc_curve1=CurveFor_InvForPV_0355942.1_from_0355941.1 DeltaQ_factor=0.01 hysteresis_offset=0 avgwindowlen=0s VoltageChangeTolerance=0.0001 VarChangeTolerance=0.0001 RateofChangeMode=INACTIVE LPFtau=0 RiseFallLimit=0.001 EventLog=Yes
New Invcontrol.InvForPV_0355933.2_from_0355941.2 PVSystemList=PV_0355933.2_from_0355941.2 Mode=VOLTVAR voltage_curvex_ref=rated vvc_curve1=CurveFor_InvForPV_0355933.2_from_0355941.2 DeltaQ_factor=0.01 hysteresis_offset=0 avgwindowlen=0s VoltageChangeTolerance=0.0001 VarChangeTolerance=0.0001 RateofChangeMode=INACTIVE LPFtau=0 RiseFallLimit=0.001 EventLog=Yes
New Invcontrol.InvForPV_0355942.2_from_0355941.2 PVSystemList=PV_0355942.2_from_0355941.2 Mode=VOLTVAR voltage_curvex_ref=rated vvc_curve1=CurveFor_InvForPV_0355942.2_from_0355941.2 DeltaQ_factor=0.01 hysteresis_offset=0 avgwindowlen=0s VoltageChangeTolerance=0.0001 VarChangeTolerance=0.0001 RateofChangeMode=INACTIVE LPFtau=0 RiseFallLimit=0.001 EventLog=Yes
New Invcontrol.InvForPV_0355907.1_from_0355947.1 PVSystemList=PV_0355907.1_from_0355947.1 Mode=VOLTVAR voltage_curvex_ref=rated vvc_curve1=CurveFor_InvForPV_0355907.1_from_0355947.1 DeltaQ_factor=0.01 hysteresis_offset=0 avgwindowlen=0s VoltageChangeTolerance=0.0001 VarChangeTolerance=0.0001 RateofChangeMode=INACTIVE LPFtau=0 RiseFallLimit=0.001 EventLog=Yes
New Invcontrol.InvForPV_0355907.2_from_0355947.2 PVSystemList=PV_0355907.2_from_0355947.2 Mode=VOLTVAR voltage_curvex_ref=rated vvc_curve1=CurveFor_InvForPV_0355907.2_from_0355947.2 DeltaQ_factor=0.01 hysteresis_offset=0 avgwindowlen=0s VoltageChangeTolerance=0.0001 VarChangeTolerance=0.0001 RateofChangeMode=INACTIVE LPFtau=0 RiseFallLimit=0.001 EventLog=Yes
New Invcontrol.InvForPV_0355949A.2_from_0355952.2 PVSystemList=PV_0355949A.2_from_0355952.2 Mode=VOLTVAR voltage_curvex_ref=rated vvc_curve1=CurveFor_InvForPV_0355949A.2_from_0355952.2 DeltaQ_factor=0.01 hysteresis_offset=0 avgwindowlen=0s VoltageChangeTolerance=0.0001 VarChangeTolerance=0.0001 RateofChangeMode=INACTIVE LPFtau=0 RiseFallLimit=0.001 EventLog=Yes
New Invcontrol.InvForPV_0355951.2_from_0355952.2 PVSystemList=PV_0355951.2_from_0355952.2 Mode=VOLTVAR voltage_curvex_ref=rated vvc_curve1=CurveFor_InvForPV_0355951.2_from_0355952.2 DeltaQ_factor=0.01 hysteresis_offset=0 avgwindowlen=0s VoltageChangeTolerance=0.0001 VarChangeTolerance=0.0001 RateofChangeMode=INACTIVE LPFtau=0 RiseFallLimit=0.001 EventLog=Yes
New Invcontrol.InvForPV_0355949A.3_from_0355952.3 PVSystemList=PV_0355949A.3_from_0355952.3 Mode=VOLTVAR voltage_curvex_ref=rated vvc_curve1=CurveFor_InvForPV_0355949A.3_from_0355952.3 DeltaQ_factor=0.01 hysteresis_offset=0 avgwindowlen=0s VoltageChangeTolerance=0.0001 VarChangeTolerance=0.0001 RateofChangeMode=INACTIVE LPFtau=0 RiseFallLimit=0.001 EventLog=Yes
New Invcontrol.InvForPV_0355951.3_from_0355952.3 PVSystemList=PV_0355951.3_from_0355952.3 Mode=VOLTVAR voltage_curvex_ref=rated vvc_curve1=CurveFor_InvForPV_0355951.3_from_0355952.3 DeltaQ_factor=0.01 hysteresis_offset=0 avgwindowlen=0s VoltageChangeTolerance=0.0001 VarChangeTolerance=0.0001 RateofChangeMode=INACTIVE LPFtau=0 RiseFallLimit=0.001 EventLog=Yes


! Let DSS estimate the voltage bases
Set voltagebases=[12 12]
Calcvoltagebases     ! This also establishes the bus list

Buscoords OutputDSS_buscoords.csv


set maxiterations=1000
